
**** 09/30/25 23:44:17 ******* PSpice 17.4.0 (Nov 2018) ******* ID# 0 ********

 ** Profile: "SCHEMATIC1-trans"  [ C:\Cadence\SPB_17.4\tools\pspice\capture_samples\CoSimulationDemos\PSpiceCoSim\INSULATION\project-


 ****     CIRCUIT DESCRIPTION


******************************************************************************




** Creating circuit file "trans.cir" 
** WARNING: THIS AUTOMATICALLY GENERATED FILE MAY BE OVERWRITTEN BY SUBSEQUENT SIMULATIONS

*Libraries: 
* Profile Libraries :
* Local Libraries :
* From [PSPICE NETLIST] section of C:\Users\ahmet\AppData\Roaming\SPB_Data\cdssetup\OrCAD_PSpice/17.4.0/PSpice.ini file:
.lib "C:\Cadence\SPB_17.4\tools\pspice\library\LP2985-33.LIB" 
.lib "C:\Cadence\SPB_17.4\tools\pspice\library\AMC3330.lib" 
.lib "C:\Cadence\SPB_17.4\tools\pspice\library\tlv6001.lib" 
.lib "nom.lib" 

*Analysis directives: 
.OPTIONS ADVCONV
.OPTIONS CHGTOL= 0.1p
.AUTOCONVERGE ITL1=1000 ITL2=1000 ITL4=1000 RELTOL=0.05 ABSTOL=1.0E-6 VNTOL=.001 PIVTOL=1.0E-10 
.PROBE64 V(alias(*)) I(alias(*)) W(alias(*)) D(alias(*)) NOISE(alias(*)) 

.subckt PSpiceBlock dummy
* source PROJECT
X_U1         N02240 0 N02573 3.3V 0 N02764 N02757 N01247 CHASIS N01247 N01903
+  CHASIS CHASIS N15218 N02240 AMC3330
C_C2         CHASIS N01247  1u  TC=0,0 
C_C3         CHASIS N01247  1n  TC=0,0 
C_C4         N01247 CHASIS  100n  TC=0,0 
C_C5         CHASIS N01903  100n  TC=0,0 
C_C6         CHASIS N01903  1n  TC=0,0 
C_C7         0 N02240  100n  TC=0,0 
X_U2         N02770 N02759 3.3V 0 N02985 TLV6001
R_R1         N02759 N02757  10k TC=0,0 
R_R2         N02770 N02764  10k TC=0,0 
R_R3         N02985 N02759  8.25k TC=0,0 
V_V4         N34976 0 1.65V
R_R5         N34976 N02770  8.25K TC=0,0 
C_C8         0 3.3V  1u  TC=0,0 
C_C9         0 3.3V  1n  TC=0,0 
V_V5         N00298 0 90
C_C10         N02985 N02759  1n  TC=0,0 
C_C11         0 3.3V  100n  TC=0,0 
V_V6         N28394 0 12V
C_C12         0 N28394  1u  TC=0,0 
C_C13         0 N28882  10n  TC=0,0 
C_C14         0 3.3V  2.2u  TC=0,0 
X_U3         N28394 0 N28394 N28882 3.3V LP2985-33
X_S3    N33797 0 N25400 N00298 SCHEMATIC1_S3 
X_S2    N34013 0 0 N25400 SCHEMATIC1_S2 
V_V7 N33797 0 0
V_V8 N34013 0 0
C_C19         0 3.3V  1n  TC=0,0 
X_U4         N37750 0 N37922 3.3V 0 N38200 N38266 N37666 0 N37666 N38024 N38112
+  N38112 N38186 N37750 AMC3330
C_C24         0 3.3V  100n  TC=0,0 
R_R8         N38550 N38200  10k TC=0,0 
C_C16         0 N37666  1n  TC=0,0 
C_C22         N38112 N38024  100n  TC=0,0 
R_R6         N38364 N38372  16.5k TC=0,0 
C_C17         0 N37750  100n  TC=0,0 
C_C21         N38112 N38024  1n  TC=0,0 
C_C18         N37666 0  100n  TC=0,0 
X_U5         N38550 N38372 3.3V 0 N38364 TLV6001
C_C15         0 N37666  1u  TC=0,0 
V_V9         N38648 0 1.65V
R_R7         N38372 N38266  10k TC=0,0 
C_C20         0 3.3V  1u  TC=0,0 
R_R9         N38648 N38550  16.5k TC=0,0 
C_C23         N38364 N38372  1n  TC=0,0 
V_V10         N38805 0 90
R_R10         0 N39190  2.48k TC=0,0 
R_R11         N38805 N39190  264.5k TC=0,0 
C_C25         N38648 N38550  1n  TC=0,0 
R_R14         N25400 N00819  68.1k TC=0,0 
R_R16         N00819 N15218  1000 TC=0,0 
R_R17         CHASIS N00819  120 TC=0,0 
C_C26         CHASIS N15218  1n  TC=0,0 
R_R18         3.3V N02573  10k TC=0,0 
R_R19         N39190 N38186  100 TC=0,0 
R_R20         0 N38112  100 TC=0,0 
C_C27         N38112 N38186  1n  TC=0,0 
R_R21         3.3V N37922  10k TC=0,0 
R_R22         0 CHASIS  1000k TC=0,0 
C_C28         N38200 N38266  1n  TC=0,0 
R_R23         CHASIS N00298  1000k TC=0,0 


.ends PSpiceBlock

.subckt SCHEMATIC1_S3 1 2 3 4  
S_S3         3 4 1 2 _S3
RS_S3         1 2 1G
.MODEL         _S3 VSWITCH Roff=1Meg Ron=1 Voff=0 Von=3
.ends SCHEMATIC1_S3

.subckt SCHEMATIC1_S2 1 2 3 4  
S_S2         3 4 1 2 _S2
RS_S2         1 2 1G
.MODEL         _S2 VSWITCH Roff=1Meg Ron=1 Voff=0 Von=3
.ends SCHEMATIC1_S2

X_PSpiceBlock dummy PSpiceBlock



.TRAN 0 1.575
.PROBE64 N([X_PSpiceBlock.N02985])
.PROBE64 N([X_PSpiceBlock.N38364])

.END

**** 09/30/25 23:44:17 ******* PSpice 17.4.0 (Nov 2018) ******* ID# 0 ********

 ** Profile: "SCHEMATIC1-trans"  [ C:\Cadence\SPB_17.4\tools\pspice\capture_samples\CoSimulationDemos\PSpiceCoSim\INSULATION\project-


 ****     Diode MODEL PARAMETERS


******************************************************************************




               X_PSpiceBlock.X_U2.Xe_n.DVN 
          IS  100.000000E-18 
          KF   10.000000E-12 


               X_PSpiceBlock.X_U5.Xe_n.DVN 
          IS  100.000000E-18 
          KF   10.000000E-12 


               X_PSpiceBlock.X_U1.XHLDO.XD_Z2.D_1_25V 
  T_Measured   27            
   T_Current   27            
          IS    1.000000E-09 
           N     .5          
          BV    1.25         
         IBV    2.750000E-06 


               X_PSpiceBlock.X_U1.XHLDO.XD_Z3.D_1_25V 
  T_Measured   27            
   T_Current   27            
          IS    1.000000E-09 
          BV    4            
         IBV    1.000000E-06 
         XTI    0            


               X_PSpiceBlock.X_U1.XHLDO.XD_D3.DD 
  T_Measured   27            
   T_Current   27            
          IS    1.000000E-12 


               X_PSpiceBlock.X_U1.XHLDO.XD_D1.DD 
  T_Measured   27            
   T_Current   27            
          IS    1.000000E-09 
          RS    1            


               X_PSpiceBlock.X_U1.XHLDO.XDZb1.D_3_0V 
  T_Measured   27            
   T_Current   27            
          IS    1.000000E-09 
           N     .5          
          BV    2.5          
         IBV    5.000000E-06 


               X_PSpiceBlock.X_U1.XHLDO.XD1.DD 
  T_Measured   27            
   T_Current   27            
          IS    5.000000E-06 
         XTI    0            


               X_PSpiceBlock.X_U1.XHLDO.XD_Z1.D_Z1V2 
          IS    1.000000E-09 
          BV    6            
         IBV  100.000000E-09 


               X_PSpiceBlock.X_U1.XHLDO.XU1.D_1 
  T_Measured   27            
   T_Current   27            
          IS    1.000000E-12 
           N     .1          
          RS  100            


               X_PSpiceBlock.X_U1.XLDO.XD_Z3.D_1_25V 
  T_Measured   27            
   T_Current   27            
          IS    1.000000E-09 
          BV    4            
         IBV    1.000000E-06 
         XTI    0            


               X_PSpiceBlock.X_U1.XLDO.XD_D3.DD 
  T_Measured   27            
   T_Current   27            
          IS    1.000000E-12 


               X_PSpiceBlock.X_U1.XLDO.XD_D1.DD 
  T_Measured   27            
   T_Current   27            
          IS    1.000000E-09 
          RS    1            


               X_PSpiceBlock.X_U1.XLDO.XD_Z2.D_1_25V 
  T_Measured   27            
   T_Current   27            
          IS    1.000000E-09 
           N     .5          
          BV    1.25         
         IBV    2.750000E-06 


               X_PSpiceBlock.X_U1.XLDO.XDZb1.D_3_0V 
  T_Measured   27            
   T_Current   27            
          IS    1.000000E-09 
           N     .5          
          BV    2.5          
         IBV    5.000000E-06 


               X_PSpiceBlock.X_U1.XLDO.XD1.DD 
  T_Measured   27            
   T_Current   27            
          IS    5.000000E-06 
         XTI    0            


               X_PSpiceBlock.X_U1.XLDO.XD_Z1.D_Z1V2 
          IS    1.000000E-09 
          BV    6            
         IBV  100.000000E-09 


               X_PSpiceBlock.X_U1.XLDO.XU1.D_1 
  T_Measured   27            
   T_Current   27            
          IS    1.000000E-12 
           N     .1          
          RS  100            


               X_PSpiceBlock.X_U1.XAMP.XD8.D_Liminh 
  T_Measured   27            
   T_Current   27            
          IS    3.500000E-15 
          EG     .55         
         XTI    0            
          AF     .1          


               X_PSpiceBlock.X_U1.XAMP.XD7.D_Liminh 
  T_Measured   27            
   T_Current   27            
          IS    3.500000E-15 
          EG     .55         
         XTI    0            
          AF     .1          


               X_PSpiceBlock.X_U1.XAMP.XD6.D_Liminh 
  T_Measured   27            
   T_Current   27            
          IS    3.500000E-15 
          EG     .55         
         XTI    0            
          AF     .1          


               X_PSpiceBlock.X_U1.XAMP.XD5.D_Liminh 
  T_Measured   27            
   T_Current   27            
          IS    3.500000E-15 
          EG     .55         
         XTI    0            
          AF     .1          


               X_PSpiceBlock.X_U1.XAMP.XD10.D_Z5V3 
  T_Measured   27            
   T_Current   27            
          IS    1.000000E-12 
          BV    5.3          
         IBV    1.000000E-03 
          RS   10            
         XTI    0            


               X_PSpiceBlock.X_U1.XAMP.XD9.D_Z5V3 
  T_Measured   27            
   T_Current   27            
          IS    1.000000E-12 
          BV    5.3          
         IBV    1.000000E-03 
          RS   10            
         XTI    0            


               X_PSpiceBlock.X_U4.XHLDO.XD_Z2.D_1_25V 
  T_Measured   27            
   T_Current   27            
          IS    1.000000E-09 
           N     .5          
          BV    1.25         
         IBV    2.750000E-06 


               X_PSpiceBlock.X_U4.XHLDO.XD_Z3.D_1_25V 
  T_Measured   27            
   T_Current   27            
          IS    1.000000E-09 
          BV    4            
         IBV    1.000000E-06 
         XTI    0            


               X_PSpiceBlock.X_U4.XHLDO.XD_D3.DD 
  T_Measured   27            
   T_Current   27            
          IS    1.000000E-12 


               X_PSpiceBlock.X_U4.XHLDO.XD_D1.DD 
  T_Measured   27            
   T_Current   27            
          IS    1.000000E-09 
          RS    1            


               X_PSpiceBlock.X_U4.XHLDO.XDZb1.D_3_0V 
  T_Measured   27            
   T_Current   27            
          IS    1.000000E-09 
           N     .5          
          BV    2.5          
         IBV    5.000000E-06 


               X_PSpiceBlock.X_U4.XHLDO.XD1.DD 
  T_Measured   27            
   T_Current   27            
          IS    5.000000E-06 
         XTI    0            


               X_PSpiceBlock.X_U4.XHLDO.XD_Z1.D_Z1V2 
          IS    1.000000E-09 
          BV    6            
         IBV  100.000000E-09 


               X_PSpiceBlock.X_U4.XHLDO.XU1.D_1 
  T_Measured   27            
   T_Current   27            
          IS    1.000000E-12 
           N     .1          
          RS  100            


               X_PSpiceBlock.X_U4.XLDO.XD_Z3.D_1_25V 
  T_Measured   27            
   T_Current   27            
          IS    1.000000E-09 
          BV    4            
         IBV    1.000000E-06 
         XTI    0            


               X_PSpiceBlock.X_U4.XLDO.XD_D3.DD 
  T_Measured   27            
   T_Current   27            
          IS    1.000000E-12 


               X_PSpiceBlock.X_U4.XLDO.XD_D1.DD 
  T_Measured   27            
   T_Current   27            
          IS    1.000000E-09 
          RS    1            


               X_PSpiceBlock.X_U4.XLDO.XD_Z2.D_1_25V 
  T_Measured   27            
   T_Current   27            
          IS    1.000000E-09 
           N     .5          
          BV    1.25         
         IBV    2.750000E-06 


               X_PSpiceBlock.X_U4.XLDO.XDZb1.D_3_0V 
  T_Measured   27            
   T_Current   27            
          IS    1.000000E-09 
           N     .5          
          BV    2.5          
         IBV    5.000000E-06 


               X_PSpiceBlock.X_U4.XLDO.XD1.DD 
  T_Measured   27            
   T_Current   27            
          IS    5.000000E-06 
         XTI    0            


               X_PSpiceBlock.X_U4.XLDO.XD_Z1.D_Z1V2 
          IS    1.000000E-09 
          BV    6            
         IBV  100.000000E-09 


               X_PSpiceBlock.X_U4.XLDO.XU1.D_1 
  T_Measured   27            
   T_Current   27            
          IS    1.000000E-12 
           N     .1          
          RS  100            


               X_PSpiceBlock.X_U4.XAMP.XD8.D_Liminh 
  T_Measured   27            
   T_Current   27            
          IS    3.500000E-15 
          EG     .55         
         XTI    0            
          AF     .1          


               X_PSpiceBlock.X_U4.XAMP.XD7.D_Liminh 
  T_Measured   27            
   T_Current   27            
          IS    3.500000E-15 
          EG     .55         
         XTI    0            
          AF     .1          


               X_PSpiceBlock.X_U4.XAMP.XD6.D_Liminh 
  T_Measured   27            
   T_Current   27            
          IS    3.500000E-15 
          EG     .55         
         XTI    0            
          AF     .1          


               X_PSpiceBlock.X_U4.XAMP.XD5.D_Liminh 
  T_Measured   27            
   T_Current   27            
          IS    3.500000E-15 
          EG     .55         
         XTI    0            
          AF     .1          


               X_PSpiceBlock.X_U4.XAMP.XD10.D_Z5V3 
  T_Measured   27            
   T_Current   27            
          IS    1.000000E-12 
          BV    5.3          
         IBV    1.000000E-03 
          RS   10            
         XTI    0            


               X_PSpiceBlock.X_U4.XAMP.XD9.D_Z5V3             D2              
  T_Measured   27              27            
   T_Current   27              27            
          IS    1.000000E-12                                    1.000000E-12 
          BV    5.3                                                          
         IBV    1.000000E-03                                                 
          RS   10                                              10            
         XTI    0                                               0            


               X_PSpiceBlock.X_U1.XAMP.XInput.XD10.D_Liminh 
  T_Measured   27            
   T_Current   27            
          IS    3.500000E-15 
           N    3            
          EG     .55         
         XTI    0            
          AF     .1          


               X_PSpiceBlock.X_U1.XAMP.XInput.XD8.D_Liminh 
  T_Measured   27            
   T_Current   27            
          IS    3.500000E-15 
          EG     .55         
         XTI    0            
          AF     .1          


               X_PSpiceBlock.X_U1.XAMP.XInput.XD2.D_Liminh 
  T_Measured   27            
   T_Current   27            
          IS    3.500000E-15 
          EG     .55         
         XTI    0            
          AF     .1          


               X_PSpiceBlock.X_U1.XAMP.XInput.XD1.D_Liminh 
  T_Measured   27            
   T_Current   27            
          IS    3.500000E-15 
          EG     .55         
         XTI    0            
          AF     .1          


               X_PSpiceBlock.X_U4.XAMP.XInput.XD10.D_Liminh 
  T_Measured   27            
   T_Current   27            
          IS    3.500000E-15 
           N    3            
          EG     .55         
         XTI    0            
          AF     .1          


               X_PSpiceBlock.X_U4.XAMP.XInput.XD8.D_Liminh 
  T_Measured   27            
   T_Current   27            
          IS    3.500000E-15 
          EG     .55         
         XTI    0            
          AF     .1          


               X_PSpiceBlock.X_U4.XAMP.XInput.XD2.D_Liminh 
  T_Measured   27            
   T_Current   27            
          IS    3.500000E-15 
          EG     .55         
         XTI    0            
          AF     .1          


               X_PSpiceBlock.X_U4.XAMP.XInput.XD1.D_Liminh 
  T_Measured   27            
   T_Current   27            
          IS    3.500000E-15 
          EG     .55         
         XTI    0            
          AF     .1          


               X_PSpiceBlock.X_U1.XAMP.XInput.XBias.XD1.DD 
  T_Measured   27            
   T_Current   27            
          IS   10.000000E-09 
           N     .5          
          RS    1            
          EG     .55         
         XTI    0            


               X_PSpiceBlock.X_U1.XAMP.XInput.XBias.XDZb1.D_4_9V 
  T_Measured   27            
   T_Current   27            
          IS    1.000000E-09 
          BV    2.9          
         IBV    1.000000E-03 
         XTI    0            


               X_PSpiceBlock.X_U4.XAMP.XInput.XBias.XD1.DD 
  T_Measured   27            
   T_Current   27            
          IS   10.000000E-09 
           N     .5          
          RS    1            
          EG     .55         
         XTI    0            


               X_PSpiceBlock.X_U4.XAMP.XInput.XBias.XDZb1.D_4_9V 
  T_Measured   27            
   T_Current   27            
          IS    1.000000E-09 
          BV    2.9          
         IBV    1.000000E-03 
         XTI    0            


               D_Lim100_05     D_Lim1          
  T_Measured   27              27            
   T_Current   27              27            
          IS   10.000000E-15   10.000000E-15 
           N     .5                          
          RS  100               1.000000E+03 
          EG     .555                        
         XTI    0               0            
          AF     .1              .1          


**** 09/30/25 23:44:17 ******* PSpice 17.4.0 (Nov 2018) ******* ID# 0 ********

 ** Profile: "SCHEMATIC1-trans"  [ C:\Cadence\SPB_17.4\tools\pspice\capture_samples\CoSimulationDemos\PSpiceCoSim\INSULATION\project-


 ****     MOSFET MODEL PARAMETERS


******************************************************************************




               X_PSpiceBlock.X_U1.XHLDO.XQ1.SWMOS 
               PMOS            
  T_Measured   27            
   T_Current   27            
       LEVEL    1            
           L  100.000000E-06 
           W  100.000000E-06 
         VTO   -1            
          KP     .01         
       GAMMA    0            
         PHI     .6          
      LAMBDA  500.000000E-06 
          IS    0            
          JS    0            
          PB     .8          
        PBSW     .8          
          CJ    0            
        CJSW    0            
        CGSO    0            
        CGDO    0            
        CGBO    0            
         TOX    0            
          XJ    0            
       UCRIT   10.000000E+03 
      DIOMOD    1            
         VFB    0            
        LETA    0            
        WETA    0            
          U0    0            
        TEMP    0            
         VDD    5            
       XPART    0            


               X_PSpiceBlock.X_U1.XLDO.XQ1.SWMOS 
               PMOS            
  T_Measured   27            
   T_Current   27            
       LEVEL    1            
           L  100.000000E-06 
           W  100.000000E-06 
         VTO   -1            
          KP     .01         
       GAMMA    0            
         PHI     .6          
      LAMBDA  500.000000E-06 
          IS    0            
          JS    0            
          PB     .8          
        PBSW     .8          
          CJ    0            
        CJSW    0            
        CGSO    0            
        CGDO    0            
        CGBO    0            
         TOX    0            
          XJ    0            
       UCRIT   10.000000E+03 
      DIOMOD    1            
         VFB    0            
        LETA    0            
        WETA    0            
          U0    0            
        TEMP    0            
         VDD    5            
       XPART    0            


               X_PSpiceBlock.X_U4.XHLDO.XQ1.SWMOS 
               PMOS            
  T_Measured   27            
   T_Current   27            
       LEVEL    1            
           L  100.000000E-06 
           W  100.000000E-06 
         VTO   -1            
          KP     .01         
       GAMMA    0            
         PHI     .6          
      LAMBDA  500.000000E-06 
          IS    0            
          JS    0            
          PB     .8          
        PBSW     .8          
          CJ    0            
        CJSW    0            
        CGSO    0            
        CGDO    0            
        CGBO    0            
         TOX    0            
          XJ    0            
       UCRIT   10.000000E+03 
      DIOMOD    1            
         VFB    0            
        LETA    0            
        WETA    0            
          U0    0            
        TEMP    0            
         VDD    5            
       XPART    0            


               X_PSpiceBlock.X_U4.XLDO.XQ1.SWMOS              Q_PMOS_Out_L1   
               PMOS                                            PMOS            
  T_Measured   27                            
   T_Current   27                            
       LEVEL    1                                               1            
           L  100.000000E-06                                   10.000000E-06 
           W  100.000000E-06                                  100.000000E-06 
          LD   90.000000E-09 
         VTO   -1                                               -.75         
          KP     .01                                          194.239300E-06 
       GAMMA    0                                               0            
         PHI     .6                                              .6          
      LAMBDA  500.000000E-06                                     .01         
         RDS   10.000000E+06 
         RSH    4            
          IS    0                                              10.000000E-15 
          JS    0                                               0            
          PB     .8                                              .7          
        PBSW     .8                                              .7          
          CJ    0                                             400.000000E-06 
        CJSW    0                                               2.400000E-09 
        CGSO    0                                             466.174400E-12 
        CGDO    0                                             466.174400E-12 
        CGBO    0                                               0            
         TOX    0                                               0            
          XJ    0                                               0            
       UCRIT   10.000000E+03                                   10.000000E+03 
      DIOMOD    1                                               1            
         VFB    0                                               0            
        LETA    0                                               0            
        WETA    0                                               0            
          U0    0                                               0            
        TEMP    0                                               0            
         VDD    5                                               5            
       XPART    0                                               0            


               Q_NMOS_Out_L1   
               NMOS            
       LEVEL    1            
           L   10.000000E-06 
           W  100.000000E-06 
          LD   90.000000E-09 
         VTO     .75         
          KP  194.239300E-06 
       GAMMA    0            
         PHI     .6          
      LAMBDA     .01         
         RDS   10.000000E+06 
         RSH    4            
          IS   10.000000E-15 
          JS    0            
          PB     .7          
        PBSW     .7          
          CJ  200.000000E-06 
        CJSW    1.200000E-09 
        CGSO  388.478700E-12 
        CGDO  388.478700E-12 
        CGBO    0            
         TOX    0            
          XJ    0            
       UCRIT   10.000000E+03 
      DIOMOD    1            
         VFB    0            
        LETA    0            
        WETA    0            
          U0    0            
        TEMP    0            
         VDD    5            
       XPART    0            


**** 09/30/25 23:44:17 ******* PSpice 17.4.0 (Nov 2018) ******* ID# 0 ********

 ** Profile: "SCHEMATIC1-trans"  [ C:\Cadence\SPB_17.4\tools\pspice\capture_samples\CoSimulationDemos\PSpiceCoSim\INSULATION\project-


 ****     Resistor MODEL PARAMETERS


******************************************************************************




               X_PSpiceBlock.X_U2.R_NOISELESS 
  T_Measured   27            
   T_Current -273.15         
           R    1            


               X_PSpiceBlock.X_U5.R_NOISELESS 
  T_Measured   27            
   T_Current -273.15         
           R    1            


               X_PSpiceBlock.X_U1.XAMP.XGain.RMOD2 
           R    1            
         TC1  -15.000000E-06 


               X_PSpiceBlock.X_U4.XAMP.XGain.RMOD2 
           R    1            
         TC1  -15.000000E-06 


               X_PSpiceBlock.X_U1.XAMP.XInput.XU_2.RTemp 
           R    1            
         TC1   -7.000000E-03 


               X_PSpiceBlock.X_U1.XAMP.XInput.XU_1.RTemp 
           R    1            
         TC1   -7.000000E-03 


               X_PSpiceBlock.X_U1.XAMP.XInput.XU5.RMOD2 
           R    1            
         TC1    9.803922E-03 


               X_PSpiceBlock.X_U4.XAMP.XInput.XU_2.RTemp 
           R    1            
         TC1   -7.000000E-03 


               X_PSpiceBlock.X_U4.XAMP.XInput.XU_1.RTemp 
           R    1            
         TC1   -7.000000E-03 


               X_PSpiceBlock.X_U4.XAMP.XInput.XU5.RMOD2 
           R    1            
         TC1    9.803922E-03 


**** 09/30/25 23:44:17 ******* PSpice 17.4.0 (Nov 2018) ******* ID# 0 ********

 ** Profile: "SCHEMATIC1-trans"  [ C:\Cadence\SPB_17.4\tools\pspice\capture_samples\CoSimulationDemos\PSpiceCoSim\INSULATION\project-


 ****     Voltage Controlled Switch MODEL PARAMETERS


******************************************************************************




               X_PSpiceBlock.X_U2.BB_SW 
         RON   50            
        ROFF    1.000000E+09 
         VON     .7          
        VOFF    0            


               X_PSpiceBlock.X_U2.ESD_SW 
         RON   50            
        ROFF    1.000000E+09 
         VON     .5          
        VOFF     .1          


               X_PSpiceBlock.X_U2.OL_SW 
         RON    1.000000E-03 
        ROFF    1.000000E+09 
         VON     .9          
        VOFF     .8          


               X_PSpiceBlock.X_U2.OR_SW 
         RON     .01         
        ROFF    1.000000E+09 
         VON    1.000000E-03 
        VOFF    0            


               X_PSpiceBlock.X_S3._S3 
         RON    1            
        ROFF    1.000000E+06 
         VON    3            
        VOFF    0            


               X_PSpiceBlock.X_S2._S2 
         RON    1            
        ROFF    1.000000E+06 
         VON    3            
        VOFF    0            


               X_PSpiceBlock.X_U5.BB_SW 
         RON   50            
        ROFF    1.000000E+09 
         VON     .7          
        VOFF    0            


               X_PSpiceBlock.X_U5.ESD_SW 
         RON   50            
        ROFF    1.000000E+09 
         VON     .5          
        VOFF     .1          


               X_PSpiceBlock.X_U5.OL_SW 
         RON    1.000000E-03 
        ROFF    1.000000E+09 
         VON     .9          
        VOFF     .8          


               X_PSpiceBlock.X_U5.OR_SW 
         RON     .01         
        ROFF    1.000000E+09 
         VON    1.000000E-03 
        VOFF    0            


               X_PSpiceBlock.X_U1.XAMP.S_VSWITCH_1 
         RON  100            
        ROFF    1.000000E+09 
         VON     .6          
        VOFF     .4          


               X_PSpiceBlock.X_U4.XAMP.S_VSWITCH_1 
         RON  100            
        ROFF    1.000000E+09 
         VON     .6          
        VOFF     .4          


Starting pseudo-transient algorithm.

**** 09/30/25 23:44:17 ******* PSpice 17.4.0 (Nov 2018) ******* ID# 0 ********

 ** Profile: "SCHEMATIC1-trans"  [ C:\Cadence\SPB_17.4\tools\pspice\capture_samples\CoSimulationDemos\PSpiceCoSim\INSULATION\project-


 ****     INITIAL TRANSIENT SOLUTION       TEMPERATURE =   27.000 DEG C


******************************************************************************



 NODE   VOLTAGE     NODE   VOLTAGE     NODE   VOLTAGE     NODE   VOLTAGE


(X_PSpiceBlock.3.3V)    3.3267        (X_PSpiceBlock.CHASIS)   45.0000          

(X_PSpiceBlock.N00298)   90.0000      (X_PSpiceBlock.N00819)   45.0000          

(X_PSpiceBlock.N01247)   49.2660      (X_PSpiceBlock.N01903)   48.1500          

(X_PSpiceBlock.N02240)    2.9000      (X_PSpiceBlock.N02573)    3.3266          

(X_PSpiceBlock.N02757)    1.4406      (X_PSpiceBlock.N02759)    1.5561          

(X_PSpiceBlock.N02764)    1.4408      (X_PSpiceBlock.N02770)    1.5555          

(X_PSpiceBlock.N02985)    1.6514      (X_PSpiceBlock.N15218)   45.0000          

(X_PSpiceBlock.N25400)   45.0000      (X_PSpiceBlock.N28394)   12.0000          

(X_PSpiceBlock.N28882)    0.0000      (X_PSpiceBlock.N33797)    0.0000          

(X_PSpiceBlock.N34013)    0.0000      (X_PSpiceBlock.N34976)    1.6500          

(X_PSpiceBlock.N37666)    4.2660      (X_PSpiceBlock.N37750)    2.9000          

(X_PSpiceBlock.N37922)    3.3266      (X_PSpiceBlock.N38024)    3.6454          

(X_PSpiceBlock.N38112)     .4953      (X_PSpiceBlock.N38186)     .8360          

(X_PSpiceBlock.N38200)    1.7812      (X_PSpiceBlock.N38266)    1.1003          

(X_PSpiceBlock.N38364)    2.7754      (X_PSpiceBlock.N38372)    1.7324          

(X_PSpiceBlock.N38550)    1.7317      (X_PSpiceBlock.N38648)    1.6500          

(X_PSpiceBlock.N38805)   90.0000      (X_PSpiceBlock.N39190)     .8360          

(X_PSpiceBlock.X_U2.MID)    1.6625    (X_PSpiceBlock.X_U5.MID)    1.6625        

(X_PSpiceBlock.X_U2.ESDn)    1.5561   (X_PSpiceBlock.X_U2.ESDp)    1.5555       

(X_PSpiceBlock.X_U2.N001)    1.5522   (X_PSpiceBlock.X_U2.N002)    1.6625       

(X_PSpiceBlock.X_U2.N003)   15.1630   (X_PSpiceBlock.X_U2.N004)     .0033       

(X_PSpiceBlock.X_U2.N005)    1.6625   (X_PSpiceBlock.X_U2.N006)    1.6626       

(X_PSpiceBlock.X_U2.N007)    3.3234   (X_PSpiceBlock.X_U2.N008)  161.6600       

(X_PSpiceBlock.X_U2.N009)    3.3194   (X_PSpiceBlock.X_U2.N010)    3.3194       

(X_PSpiceBlock.X_U2.N011)    1.6625   (X_PSpiceBlock.X_U2.N012)    1.6625       

(X_PSpiceBlock.X_U2.N013)    1.6625   (X_PSpiceBlock.X_U2.N014)    1.6625       

(X_PSpiceBlock.X_U2.N015)    -.0205   (X_PSpiceBlock.X_U2.N016)    -.0205       

(X_PSpiceBlock.X_U2.N017)    -.0205   (X_PSpiceBlock.X_U2.N018)    3.5795       

(X_PSpiceBlock.X_U2.N019)    3.5795   (X_PSpiceBlock.X_U2.N020)    3.5795       

(X_PSpiceBlock.X_U2.N021)    1.7795   (X_PSpiceBlock.X_U2.N022)    1.6625       

(X_PSpiceBlock.X_U2.N023)    1.6625   (X_PSpiceBlock.X_U2.N024)    1.6625       

(X_PSpiceBlock.X_U2.N025)    1.6625   (X_PSpiceBlock.X_U2.N026)    1.6625       

(X_PSpiceBlock.X_U2.N027)    1.6625   (X_PSpiceBlock.X_U2.N028)     .0066       

(X_PSpiceBlock.X_U2.N029)     .0066   (X_PSpiceBlock.X_U2.N030)    1.6625       

(X_PSpiceBlock.X_U2.N031)    1.6625   (X_PSpiceBlock.X_U2.N032)    1.5560       

(X_PSpiceBlock.X_U2.N033)    1.5560   (X_PSpiceBlock.X_U2.N034)  -10.8370       

(X_PSpiceBlock.X_U2.N035)    1.5560   (X_PSpiceBlock.X_U2.N036)    1.5561       

(X_PSpiceBlock.X_U2.N037) -158.3400   (X_PSpiceBlock.X_U2.N038)    1.5555       

(X_PSpiceBlock.X_U2.N039)    1.5561   (X_PSpiceBlock.X_U2.N040)    1.5561       

(X_PSpiceBlock.X_U2.N041)    1.6625   (X_PSpiceBlock.X_U2.N042)    3.5267       

(X_PSpiceBlock.X_U2.N043)    -.2000   (X_PSpiceBlock.X_U2.N044)    1.5561       

(X_PSpiceBlock.X_U2.N045)    1.6741   (X_PSpiceBlock.X_U2.N046)    1.6514       

(X_PSpiceBlock.X_U2.N047)    1.7795   (X_PSpiceBlock.X_U2.N048)   13.0970       

(X_PSpiceBlock.X_U2.N049)    4.0582   (X_PSpiceBlock.X_U2.N050)   13.0890       

(X_PSpiceBlock.X_U2.N051)    1.6739   (X_PSpiceBlock.X_U2.N052)   13.0890       

(X_PSpiceBlock.X_U2.N053)    1.6514   (X_PSpiceBlock.X_U2.N054)    1.7795       

(X_PSpiceBlock.X_U2.N055)    3.3267   (X_PSpiceBlock.X_U2.N056)    1.6625       

(X_PSpiceBlock.X_U2.N057) 1.666E-06   (X_PSpiceBlock.X_U2.N058)    1.6625       

(X_PSpiceBlock.X_U2.N059)    1.6625   (X_PSpiceBlock.X_U2.N060)    1.6625       

(X_PSpiceBlock.X_U2.N061)    1.6625   (X_PSpiceBlock.X_U2.N062)    1.6625       

(X_PSpiceBlock.X_U2.VCLP)    1.7795   (X_PSpiceBlock.X_U5.ESDn)    1.7324       

(X_PSpiceBlock.X_U5.ESDp)    1.7317   (X_PSpiceBlock.X_U5.N001)    1.7338       

(X_PSpiceBlock.X_U5.N002)    1.6625   (X_PSpiceBlock.X_U5.N003)   15.1630       

(X_PSpiceBlock.X_U5.N004)     .0033   (X_PSpiceBlock.X_U5.N005)    1.6625       

(X_PSpiceBlock.X_U5.N006)    1.6626   (X_PSpiceBlock.X_U5.N007)    3.3234       

(X_PSpiceBlock.X_U5.N008)  161.6600   (X_PSpiceBlock.X_U5.N009)    3.3166       

(X_PSpiceBlock.X_U5.N010)    3.3166   (X_PSpiceBlock.X_U5.N011)    1.6625       

(X_PSpiceBlock.X_U5.N012)    1.6625   (X_PSpiceBlock.X_U5.N013)    1.6625       

(X_PSpiceBlock.X_U5.N014)    1.6625   (X_PSpiceBlock.X_U5.N015)    1.8211       

(X_PSpiceBlock.X_U5.N016)    1.8211   (X_PSpiceBlock.X_U5.N017)    1.8211       

(X_PSpiceBlock.X_U5.N018)    5.4211   (X_PSpiceBlock.X_U5.N019)    5.4211       

(X_PSpiceBlock.X_U5.N020)    5.4211   (X_PSpiceBlock.X_U5.N021)    3.6211       

(X_PSpiceBlock.X_U5.N022)    1.6625   (X_PSpiceBlock.X_U5.N023)    1.6625       

(X_PSpiceBlock.X_U5.N024)    1.6625   (X_PSpiceBlock.X_U5.N025)    1.6625       

(X_PSpiceBlock.X_U5.N026)    1.6625   (X_PSpiceBlock.X_U5.N027)    1.6625       

(X_PSpiceBlock.X_U5.N028)     .0066   (X_PSpiceBlock.X_U5.N029)     .0066       

(X_PSpiceBlock.X_U5.N030)    1.6625   (X_PSpiceBlock.X_U5.N031)    1.6625       

(X_PSpiceBlock.X_U5.N032)    1.7323   (X_PSpiceBlock.X_U5.N033)    1.7323       

(X_PSpiceBlock.X_U5.N034)  -10.8370   (X_PSpiceBlock.X_U5.N035)    1.7323       

(X_PSpiceBlock.X_U5.N036)    1.7324   (X_PSpiceBlock.X_U5.N037) -158.3400       

(X_PSpiceBlock.X_U5.N038)    1.7317   (X_PSpiceBlock.X_U5.N039)    1.7324       

(X_PSpiceBlock.X_U5.N040)    1.7324   (X_PSpiceBlock.X_U5.N041)    1.6628       

(X_PSpiceBlock.X_U5.N042)    3.5267   (X_PSpiceBlock.X_U5.N043)    -.2000       

(X_PSpiceBlock.X_U5.N044)    1.7324   (X_PSpiceBlock.X_U5.N045)    1.7257       

(X_PSpiceBlock.X_U5.N046)    2.7754   (X_PSpiceBlock.X_U5.N047)    3.6211       

(X_PSpiceBlock.X_U5.N048)   77.1810   (X_PSpiceBlock.X_U5.N049)   17.4830       

(X_PSpiceBlock.X_U5.N050)   77.1170   (X_PSpiceBlock.X_U5.N051)    1.7380       

(X_PSpiceBlock.X_U5.N052)   77.1170   (X_PSpiceBlock.X_U5.N053)    2.7754       

(X_PSpiceBlock.X_U5.N054)    3.6211   (X_PSpiceBlock.X_U5.N055)    3.3267       

(X_PSpiceBlock.X_U5.N056)    1.6625   (X_PSpiceBlock.X_U5.N057) 1.666E-06       

(X_PSpiceBlock.X_U5.N058)    1.6625   (X_PSpiceBlock.X_U5.N059)    1.6625       

(X_PSpiceBlock.X_U5.N060)    1.6625   (X_PSpiceBlock.X_U5.N061)    1.6625       

(X_PSpiceBlock.X_U5.N062)    1.6625   (X_PSpiceBlock.X_U5.VCLP)    3.6211       

(X_PSpiceBlock.X_U2.CLAMP)    1.7795  (X_PSpiceBlock.X_U2.SW_OL)    1.6625      

(X_PSpiceBlock.X_U2.VCC_B)    3.3267  (X_PSpiceBlock.X_U2.VEE_B) 1.664E-06      

(X_PSpiceBlock.X_U2.VIMON)    1.6741  (X_PSpiceBlock.X_U5.CLAMP)    3.6211      

(X_PSpiceBlock.X_U5.SW_OL)    1.6625  (X_PSpiceBlock.X_U5.VCC_B)    3.3267      

(X_PSpiceBlock.X_U5.VEE_B) 1.664E-06  (X_PSpiceBlock.X_U5.VIMON)    1.7257      

(X_PSpiceBlock.X_U2.VOUT_S)    1.6514 (X_PSpiceBlock.X_U2.VSENSE)    1.7795     

(X_PSpiceBlock.X_U2.Xe_n.3)    0.0000 (X_PSpiceBlock.X_U2.Xe_n.4)    0.0000     

(X_PSpiceBlock.X_U2.Xe_n.5)    0.0000 (X_PSpiceBlock.X_U2.Xe_n.6)    0.0000     

(X_PSpiceBlock.X_U2.Xe_n.7)     .8338 (X_PSpiceBlock.X_U2.Xe_n.8)     .8338     

(X_PSpiceBlock.X_U3.X1.des)    3.3000 (X_PSpiceBlock.X_U3.X1.drv)    3.3000     

(X_PSpiceBlock.X_U3.X1.egd)    1.0000 (X_PSpiceBlock.X_U3.X1.ref)    1.2300     

(X_PSpiceBlock.X_U3.X1.v01)    1.2300 (X_PSpiceBlock.X_U3.X1.v02)    3.3000     

(X_PSpiceBlock.X_U3.X1.vgd)    1.0000 (X_PSpiceBlock.X_U3.X1.vx1)    1.0000     

(X_PSpiceBlock.X_U3.X1.vx2)    1.0000 (X_PSpiceBlock.X_U3.X1.vxx)    3.3274     

(X_PSpiceBlock.X_U3.X1.vyy)    3.3274 (X_PSpiceBlock.X_U3.X1.vzz)    3.3267     

(X_PSpiceBlock.X_U5.VOUT_S)    2.7754 (X_PSpiceBlock.X_U5.VSENSE)    3.6211     

(X_PSpiceBlock.X_U5.Xe_n.3)    0.0000 (X_PSpiceBlock.X_U5.Xe_n.4)    0.0000     

(X_PSpiceBlock.X_U5.Xe_n.5)    0.0000 (X_PSpiceBlock.X_U5.Xe_n.6)    0.0000     

(X_PSpiceBlock.X_U5.Xe_n.7)     .8338 (X_PSpiceBlock.X_U5.Xe_n.8)     .8338     

(X_PSpiceBlock.X_U1.XAMP.45)   46.0000                                          

(X_PSpiceBlock.X_U1.XAMP.46)   45.0000                                          

(X_PSpiceBlock.X_U1.XAMP.47)   46.0000                                          

(X_PSpiceBlock.X_U1.XAMP.48)   45.0000                                          

(X_PSpiceBlock.X_U1.XAMP.49)   45.0000                                          

(X_PSpiceBlock.X_U1.XLDO.24)    1.2500                                          

(X_PSpiceBlock.X_U1.XLDO.25)    1.2501                                          

(X_PSpiceBlock.X_U1.XLDO.26)    2.1652                                          

(X_PSpiceBlock.X_U1.XLDO.28)    3.0302                                          

(X_PSpiceBlock.X_U1.XLDO.30)    2.4987                                          

(X_PSpiceBlock.X_U1.XLDO.31)    2.4987                                          

(X_PSpiceBlock.X_U2.VCC_CLP)    3.3194                                          

(X_PSpiceBlock.X_U2.VEE_CLP)     .0066                                          

(X_PSpiceBlock.X_U2.Xi_nn.3)    0.0000                                          

(X_PSpiceBlock.X_U2.Xi_nn.5)    0.0000                                          

(X_PSpiceBlock.X_U2.Xi_np.3)    0.0000                                          

(X_PSpiceBlock.X_U2.Xi_np.5)    0.0000                                          

(X_PSpiceBlock.X_U3.FBK_INT)    1.2399                                          

(X_PSpiceBlock.X_U4.XAMP.45)    1.4953                                          

(X_PSpiceBlock.X_U4.XAMP.46)     .4953                                          

(X_PSpiceBlock.X_U4.XAMP.47)    1.4953                                          

(X_PSpiceBlock.X_U4.XAMP.48)     .4953                                          

(X_PSpiceBlock.X_U4.XAMP.49)     .5027                                          

(X_PSpiceBlock.X_U4.XLDO.24)    1.2500                                          

(X_PSpiceBlock.X_U4.XLDO.25)    1.2501                                          

(X_PSpiceBlock.X_U4.XLDO.26)    2.1652                                          

(X_PSpiceBlock.X_U4.XLDO.28)    3.0302                                          

(X_PSpiceBlock.X_U4.XLDO.30)    2.4987                                          

(X_PSpiceBlock.X_U4.XLDO.31)    2.4987                                          

(X_PSpiceBlock.X_U5.VCC_CLP)    3.3166                                          

(X_PSpiceBlock.X_U5.VEE_CLP)     .0066                                          

(X_PSpiceBlock.X_U5.Xi_nn.3)    0.0000                                          

(X_PSpiceBlock.X_U5.Xi_nn.5)    0.0000                                          

(X_PSpiceBlock.X_U5.Xi_np.3)    0.0000                                          

(X_PSpiceBlock.X_U5.Xi_np.5)    0.0000                                          

(X_PSpiceBlock.X_U1.XDCDC.35)    0.0000                                         

(X_PSpiceBlock.X_U1.XDCDC.G1)   44.9410                                         

(X_PSpiceBlock.X_U1.XHLDO.16)   46.2500                                         

(X_PSpiceBlock.X_U1.XHLDO.17)   46.2500                                         

(X_PSpiceBlock.X_U1.XHLDO.18)   48.1660                                         

(X_PSpiceBlock.X_U1.XHLDO.20)   48.1990                                         

(X_PSpiceBlock.X_U1.XHLDO.22)   47.4980                                         

(X_PSpiceBlock.X_U1.XHLDO.23)   47.4980                                         

(X_PSpiceBlock.X_U2.CL_CLAMP)    1.7795                                         

(X_PSpiceBlock.X_U4.XDCDC.35)    0.0000                                         

(X_PSpiceBlock.X_U4.XDCDC.G1)    -.0588                                         

(X_PSpiceBlock.X_U4.XHLDO.16)    1.7454                                         

(X_PSpiceBlock.X_U4.XHLDO.17)    1.7454                                         

(X_PSpiceBlock.X_U4.XHLDO.18)    3.1666                                         

(X_PSpiceBlock.X_U4.XHLDO.20)    3.6948                                         

(X_PSpiceBlock.X_U4.XHLDO.22)    2.9940                                         

(X_PSpiceBlock.X_U4.XHLDO.23)    2.9940                                         

(X_PSpiceBlock.X_U5.CL_CLAMP)    3.6211                                         

(X_PSpiceBlock.X_U1.XAMP.FSO1)   45.0000                                        

(X_PSpiceBlock.X_U1.XAMP.VOCM)    1.4402                                        

(X_PSpiceBlock.X_U4.XAMP.FSO1)     .4953                                        

(X_PSpiceBlock.X_U4.XAMP.VOCM)    1.4402                                        

(X_PSpiceBlock.X_U1.XDCDC.VOR1)   48.2130                                       

(X_PSpiceBlock.X_U2.CLAW_CLAMP)    1.7795                                       

(X_PSpiceBlock.X_U4.XDCDC.VOR1)    3.2132                                       

(X_PSpiceBlock.X_U5.CLAW_CLAMP)    3.6211                                       

(X_PSpiceBlock.X_U1.XAMP.FSO_41)   45.0000                                      

(X_PSpiceBlock.X_U1.XAMP.FSO_44)   45.0000                                      

(X_PSpiceBlock.X_U1.XAMP.INP_52) 195.2E-06                                      

(X_PSpiceBlock.X_U1.XDCDC.Toutp)   45.0510                                      

(X_PSpiceBlock.X_U1.XLDO.VF1_27)    -.9263                                      

(X_PSpiceBlock.X_U1.XLDO.XQ1.Si)    3.3266                                      

(X_PSpiceBlock.X_U1.XLDO.XU1.P1)    2.1652                                      

(X_PSpiceBlock.X_U4.XAMP.FSO_41)     .4953                                      

(X_PSpiceBlock.X_U4.XAMP.FSO_44)     .4953                                      

(X_PSpiceBlock.X_U4.XAMP.INP_52)     .6812                                      

(X_PSpiceBlock.X_U4.XDCDC.Toutp)     .0512                                      

(X_PSpiceBlock.X_U4.XLDO.VF1_27)    -.9263                                      

(X_PSpiceBlock.X_U4.XLDO.XQ1.Si)    3.3266                                      

(X_PSpiceBlock.X_U4.XLDO.XU1.P1)    2.1652                                      

(X_PSpiceBlock.X_U1.XAMP.XU1.thr)   45.6000                                     

(X_PSpiceBlock.X_U1.XAMP.XU2.thr)   47.6000                                     

(X_PSpiceBlock.X_U1.XAMP.XU3.thr)   47.2500                                     

(X_PSpiceBlock.X_U1.XDCDC.DVout1)   46.0530                                     

(X_PSpiceBlock.X_U1.XDCDC.Out_32)   49.2660                                     

(X_PSpiceBlock.X_U1.XDCDC.Out_33)    2.9000                                     

(X_PSpiceBlock.X_U1.XDCDC.XDAB.b)    0.0000                                     

(X_PSpiceBlock.X_U1.XDCDC.XDAB.c)    1.0000                                     

(X_PSpiceBlock.X_U1.XHLDO.VF1_19)   45.0310                                     

(X_PSpiceBlock.X_U1.XHLDO.XQ1.Si)   49.2660                                     

(X_PSpiceBlock.X_U1.XHLDO.XU1.P1)   48.1660                                     

(X_PSpiceBlock.X_U1.XLDO.XU1.VMI)     .9643                                     

(X_PSpiceBlock.X_U1.XLDO.XU1.VPI)    3.2691                                     

(X_PSpiceBlock.X_U4.XAMP.XU1.thr)    1.0953                                     

(X_PSpiceBlock.X_U4.XAMP.XU2.thr)    3.0953                                     

(X_PSpiceBlock.X_U4.XAMP.XU3.thr)    2.7453                                     

(X_PSpiceBlock.X_U4.XDCDC.DVout1)    1.0529                                     

(X_PSpiceBlock.X_U4.XDCDC.Out_32)    4.2660                                     

(X_PSpiceBlock.X_U4.XDCDC.Out_33)    2.9000                                     

(X_PSpiceBlock.X_U4.XDCDC.XDAB.b)    0.0000                                     

(X_PSpiceBlock.X_U4.XDCDC.XDAB.c)    1.0000                                     

(X_PSpiceBlock.X_U4.XHLDO.VF1_19)     .0311                                     

(X_PSpiceBlock.X_U4.XHLDO.XQ1.Si)    4.2660                                     

(X_PSpiceBlock.X_U4.XHLDO.XU1.P1)    3.1666                                     

(X_PSpiceBlock.X_U4.XLDO.XU1.VMI)     .9643                                     

(X_PSpiceBlock.X_U4.XLDO.XU1.VPI)    3.2691                                     

(X_PSpiceBlock.X_U1.XAMP.NOut1_51)    1.4401                                    

(X_PSpiceBlock.X_U1.XAMP.NOut1_54)   45.0000                                    

(X_PSpiceBlock.X_U1.XAMP.POut1_50)    1.4403                                    

(X_PSpiceBlock.X_U1.XAMP.POut1_53)   45.0000                                    

(X_PSpiceBlock.X_U1.XAMP.XGain.G1)     .2438                                    

(X_PSpiceBlock.X_U1.XAMP.XGain.G2) 23.80E-06                                    

(X_PSpiceBlock.X_U1.XAMP.XU1.outi)   45.0000                                    

(X_PSpiceBlock.X_U1.XAMP.XU1.thro)   45.9900                                    

(X_PSpiceBlock.X_U1.XHLDO.XU1.VMI)   46.9030                                    

(X_PSpiceBlock.X_U1.XHLDO.XU1.VPI)   49.2080                                    

(X_PSpiceBlock.X_U1.XLDO.VACin_29)    1.2500                                    

(X_PSpiceBlock.X_U4.XAMP.NOut1_51)    1.0996                                    

(X_PSpiceBlock.X_U4.XAMP.NOut1_54)     .4953                                    

(X_PSpiceBlock.X_U4.XAMP.POut1_50)    1.7808                                    

(X_PSpiceBlock.X_U4.XAMP.POut1_53)     .8361                                    

(X_PSpiceBlock.X_U4.XAMP.XGain.G1)     .2438                                    

(X_PSpiceBlock.X_U4.XAMP.XGain.G2)     .0830                                    

(X_PSpiceBlock.X_U4.XAMP.XU1.outi)     .4953                                    

(X_PSpiceBlock.X_U4.XAMP.XU1.thro)    1.4853                                    

(X_PSpiceBlock.X_U4.XHLDO.XU1.VMI)    1.9037                                    

(X_PSpiceBlock.X_U4.XHLDO.XU1.VPI)    4.2084                                    

(X_PSpiceBlock.X_U4.XLDO.VACin_29)    1.2500                                    

(X_PSpiceBlock.X_U1.XAMP.XGain.G12)     .9995                                   

(X_PSpiceBlock.X_U1.XDCDC.XGamma.a)    1.0000                                   

(X_PSpiceBlock.X_U1.XDCDC.XGamma.b)    1.0000                                   

(X_PSpiceBlock.X_U1.XHLDO.VACin_21)   46.2500                                   

(X_PSpiceBlock.X_U4.XAMP.XGain.G12)     .9995                                   

(X_PSpiceBlock.X_U4.XDCDC.XGamma.a)    1.0000                                   

(X_PSpiceBlock.X_U4.XDCDC.XGamma.b)    1.0000                                   

(X_PSpiceBlock.X_U4.XHLDO.VACin_21)    1.7454                                   

(X_PSpiceBlock.X_U1.XAMP.XFilter.67) 184.9E-18                                  

(X_PSpiceBlock.X_U1.XAMP.XFilter.68)-94.52E-09                                  

(X_PSpiceBlock.X_U1.XAMP.XFilter.69) 2.423E-15                                  

(X_PSpiceBlock.X_U1.XAMP.XFilter.70)-94.52E-09                                  

(X_PSpiceBlock.X_U1.XAMP.XFilter.71)    3.3000                                  

(X_PSpiceBlock.X_U1.XAMP.XFilter.72) 202.8E-21                                  

(X_PSpiceBlock.X_U1.XAMP.XFilter.75)    1.4395                                  

(X_PSpiceBlock.X_U1.XAMP.XFilter.76)    1.4398                                  

(X_PSpiceBlock.X_U1.XAMP.XFilter.77)    1.4397                                  

(X_PSpiceBlock.X_U1.XAMP.XFilter.78)    1.4395                                  

(X_PSpiceBlock.X_U1.XAMP.XFilter.79)    1.4397                                  

(X_PSpiceBlock.X_U1.XAMP.XFilter.80)    1.4400                                  

(X_PSpiceBlock.X_U1.XAMP.XFilter.81)    1.4402                                  

(X_PSpiceBlock.X_U1.XAMP.XFilter.82)    1.4402                                  

(X_PSpiceBlock.X_U1.XAMP.XInput.118)   45.0000                                  

(X_PSpiceBlock.X_U1.XAMP.XInput.120)   46.5750                                  

(X_PSpiceBlock.X_U1.XAMP.XInput.121)   46.5750                                  

(X_PSpiceBlock.X_U1.XAMP.XInput.123)    0.0000                                  

(X_PSpiceBlock.X_U1.XAMP.XInput.124)    0.0000                                  

(X_PSpiceBlock.X_U1.XAMP.XInput.125)-561.6E-18                                  

(X_PSpiceBlock.X_U1.XAMP.XInput.126)-3.686E-09                                  

(X_PSpiceBlock.X_U1.XAMP.XInput.127) 134.3E-18                                  

(X_PSpiceBlock.X_U1.XAMP.XInput.128)-24.31E-18                                  

(X_PSpiceBlock.X_U1.XAMP.XInput.130)   48.1500                                  

(X_PSpiceBlock.X_U1.XAMP.XInput.VOS)-102.0E-06                                  

(X_PSpiceBlock.X_U1.XDCDC.XDAB.Iinp)     .0130                                  

(X_PSpiceBlock.X_U1.XDCDC.XDAB.Iout)     .0050                                  

(X_PSpiceBlock.X_U1.XDCDC.XDAB.Xb.1)    0.0000                                  

(X_PSpiceBlock.X_U1.XDCDC.XDAB.Xb.2)    0.0000                                  

(X_PSpiceBlock.X_U1.XDCDC.XDAB.Xc.1)    1.0000                                  

(X_PSpiceBlock.X_U1.XDCDC.XDAB.Xc.2)    1.0000                                  

(X_PSpiceBlock.X_U4.XAMP.XFilter.67) 184.9E-18                                  

(X_PSpiceBlock.X_U4.XAMP.XFilter.68)-94.52E-09                                  

(X_PSpiceBlock.X_U4.XAMP.XFilter.69) 2.423E-15                                  

(X_PSpiceBlock.X_U4.XAMP.XFilter.70)-94.52E-09                                  

(X_PSpiceBlock.X_U4.XAMP.XFilter.71)    3.3000                                  

(X_PSpiceBlock.X_U4.XAMP.XFilter.72) 202.8E-21                                  

(X_PSpiceBlock.X_U4.XAMP.XFilter.75)    1.0991                                  

(X_PSpiceBlock.X_U4.XAMP.XFilter.76)    1.0993                                  

(X_PSpiceBlock.X_U4.XAMP.XFilter.77)    1.7801                                  

(X_PSpiceBlock.X_U4.XAMP.XFilter.78)    1.0991                                  

(X_PSpiceBlock.X_U4.XAMP.XFilter.79)    1.7801                                  

(X_PSpiceBlock.X_U4.XAMP.XFilter.80)    1.7804                                  

(X_PSpiceBlock.X_U4.XAMP.XFilter.81)    1.4402                                  

(X_PSpiceBlock.X_U4.XAMP.XFilter.82)    1.4402                                  

(X_PSpiceBlock.X_U4.XAMP.XInput.118)     .8360                                  

(X_PSpiceBlock.X_U4.XAMP.XInput.120)    2.0703                                  

(X_PSpiceBlock.X_U4.XAMP.XInput.121)    2.0703                                  

(X_PSpiceBlock.X_U4.XAMP.XInput.123)    0.0000                                  

(X_PSpiceBlock.X_U4.XAMP.XInput.124)    0.0000                                  

(X_PSpiceBlock.X_U4.XAMP.XInput.125) 2.446E-18                                  

(X_PSpiceBlock.X_U4.XAMP.XInput.126)-1.919E-09                                  

(X_PSpiceBlock.X_U4.XAMP.XInput.127) 39.07E-18                                  

(X_PSpiceBlock.X_U4.XAMP.XInput.128)-73.24E-21                                  

(X_PSpiceBlock.X_U4.XAMP.XInput.130)    3.6453                                  

(X_PSpiceBlock.X_U4.XAMP.XInput.VOS)-102.0E-06                                  

(X_PSpiceBlock.X_U4.XDCDC.XDAB.Iinp)     .0130                                  

(X_PSpiceBlock.X_U4.XDCDC.XDAB.Iout)     .0050                                  

(X_PSpiceBlock.X_U4.XDCDC.XDAB.Xb.1)    0.0000                                  

(X_PSpiceBlock.X_U4.XDCDC.XDAB.Xb.2)    0.0000                                  

(X_PSpiceBlock.X_U4.XDCDC.XDAB.Xc.1)    1.0000                                  

(X_PSpiceBlock.X_U4.XDCDC.XDAB.Xc.2)    1.0000                                  

(X_PSpiceBlock.X_U1.XAMP.XDFilter.55) 195.2E-06                                 

(X_PSpiceBlock.X_U1.XAMP.XDFilter.56) 195.2E-06                                 

(X_PSpiceBlock.X_U1.XAMP.XDFilter.57) 195.2E-06                                 

(X_PSpiceBlock.X_U1.XAMP.XFilter.Vt0)     .9362                                 

(X_PSpiceBlock.X_U1.XAMP.XInput.Vecm) 10.30E-12                                 

(X_PSpiceBlock.X_U1.XAMP.XInput.VICM)   45.0000                                 

(X_PSpiceBlock.X_U1.XDCDC.XDAB.deriv)    0.0000                                 

(X_PSpiceBlock.X_U1.XDCDC.XDAB.Iinp0)     .0130                                 

(X_PSpiceBlock.X_U1.XDCDC.XDAB.Iout0)     .0050                                 

(X_PSpiceBlock.X_U4.XAMP.XDFilter.55)     .6812                                 

(X_PSpiceBlock.X_U4.XAMP.XDFilter.56)     .6812                                 

(X_PSpiceBlock.X_U4.XAMP.XDFilter.57)     .6812                                 

(X_PSpiceBlock.X_U4.XAMP.XFilter.Vt0)     .9362                                 

(X_PSpiceBlock.X_U4.XAMP.XInput.Vecm)-1.704E-06                                 

(X_PSpiceBlock.X_U4.XAMP.XInput.VICM)     .6657                                 

(X_PSpiceBlock.X_U4.XDCDC.XDAB.deriv)    0.0000                                 

(X_PSpiceBlock.X_U4.XDCDC.XDAB.Iinp0)     .0130                                 

(X_PSpiceBlock.X_U4.XDCDC.XDAB.Iout0)     .0050                                 

(X_PSpiceBlock.X_U1.XAMP.XFilter.Bias)     .8936                                

(X_PSpiceBlock.X_U1.XAMP.XFilter.Vt0p)    2.3905                                

(X_PSpiceBlock.X_U1.XAMP.XInput.CMref)   45.0000                                

(X_PSpiceBlock.X_U1.XDCDC.XDAB.bdummy)    0.0000                                

(X_PSpiceBlock.X_U1.XDCDC.XDAB.cdummy)    1.0000                                

(X_PSpiceBlock.X_U1.XDCDC.XDAB.Voutpi)   49.2660                                

(X_PSpiceBlock.X_U4.XAMP.XFilter.Bias)     .8936                                

(X_PSpiceBlock.X_U4.XAMP.XFilter.Vt0p)    2.3905                                

(X_PSpiceBlock.X_U4.XAMP.XInput.CMref)     .4953                                

(X_PSpiceBlock.X_U4.XDCDC.XDAB.bdummy)    0.0000                                

(X_PSpiceBlock.X_U4.XDCDC.XDAB.cdummy)    1.0000                                

(X_PSpiceBlock.X_U4.XDCDC.XDAB.Voutpi)    4.2660                                

(X_PSpiceBlock.X_U1.XAMP.XFilter.VM_59)    2.2339                               

(X_PSpiceBlock.X_U1.XAMP.XInput.Vcmabs)   45.5000                               

(X_PSpiceBlock.X_U1.XAMP.XInput.VM_115)   46.9000                               

(X_PSpiceBlock.X_U1.XAMP.XInput.XU5.40) 102.0E-06                               

(X_PSpiceBlock.X_U4.XAMP.XFilter.VM_59)    2.2339                               

(X_PSpiceBlock.X_U4.XAMP.XInput.Vcmabs)     .8249                               

(X_PSpiceBlock.X_U4.XAMP.XInput.VM_115)    2.3953                               

(X_PSpiceBlock.X_U4.XAMP.XInput.XU5.40) 102.0E-06                               

(X_PSpiceBlock.X_U1.XAMP.XFilter.Neg_65)    1.4402                              

(X_PSpiceBlock.X_U1.XAMP.XFilter.Neg_73)    1.4402                              

(X_PSpiceBlock.X_U1.XAMP.XInput.Venoise)    0.0000                              

(X_PSpiceBlock.X_U1.XAMP.XInput.XU2.thr)   47.5100                              

(X_PSpiceBlock.X_U1.XAMP.XInput.XU_1.10)    1.0000                              

(X_PSpiceBlock.X_U1.XAMP.XInput.XU_1.20)   -1.8883                              

(X_PSpiceBlock.X_U1.XAMP.XInput.XU_2.10)    1.0000                              

(X_PSpiceBlock.X_U1.XAMP.XInput.XU_2.20)   -1.8883                              

(X_PSpiceBlock.X_U1.XDCDC.XDAB.Xslewi.1)     .0130                              

(X_PSpiceBlock.X_U1.XDCDC.XDAB.Xslewi.2)     .0130                              

(X_PSpiceBlock.X_U1.XDCDC.XDAB.Xslewo.1)     .0050                              

(X_PSpiceBlock.X_U1.XDCDC.XDAB.Xslewo.2)     .0050                              

(X_PSpiceBlock.X_U1.XDCDC.XGamma.XC1.tm) 767.4E-06                              

(X_PSpiceBlock.X_U1.XDCDC.XGamma.XC2.tm)     .0017                              

(X_PSpiceBlock.X_U4.XAMP.XFilter.Neg_65)    1.4402                              

(X_PSpiceBlock.X_U4.XAMP.XFilter.Neg_73)    1.4402                              

(X_PSpiceBlock.X_U4.XAMP.XInput.Venoise)    0.0000                              

(X_PSpiceBlock.X_U4.XAMP.XInput.XU2.thr)    3.0053                              

(X_PSpiceBlock.X_U4.XAMP.XInput.XU_1.10)    1.0000                              

(X_PSpiceBlock.X_U4.XAMP.XInput.XU_1.20)   -1.8882                              

(X_PSpiceBlock.X_U4.XAMP.XInput.XU_2.10)    1.0000                              

(X_PSpiceBlock.X_U4.XAMP.XInput.XU_2.20)   -1.8882                              

(X_PSpiceBlock.X_U4.XDCDC.XDAB.Xslewi.1)     .0130                              

(X_PSpiceBlock.X_U4.XDCDC.XDAB.Xslewi.2)     .0130                              

(X_PSpiceBlock.X_U4.XDCDC.XDAB.Xslewo.1)     .0050                              

(X_PSpiceBlock.X_U4.XDCDC.XDAB.Xslewo.2)     .0050                              

(X_PSpiceBlock.X_U4.XDCDC.XGamma.XC1.tm) 767.4E-06                              

(X_PSpiceBlock.X_U4.XDCDC.XGamma.XC2.tm)     .0017                              

(X_PSpiceBlock.X_U1.XAMP.XFilter.IGND_63)    0.0000                             

(X_PSpiceBlock.X_U1.XAMP.XFilter.Plus_66)    1.4402                             

(X_PSpiceBlock.X_U1.XAMP.XFilter.Plus_74)    1.4402                             

(X_PSpiceBlock.X_U1.XAMP.XFilter.Veps_58)-94.52E-09                             

(X_PSpiceBlock.X_U1.XAMP.XInput.IGND_117)   45.0000                             

(X_PSpiceBlock.X_U1.XAMP.XInput.Veps_112) 3.686E-09                             

(X_PSpiceBlock.X_U1.XDCDC.XDAB.f_caliber)    1.0000                             

(X_PSpiceBlock.X_U1.XDCDC.XDelta_Gamma.a)    1.0000                             

(X_PSpiceBlock.X_U1.XDCDC.XGamma.XC1.thr)    1.5980                             

(X_PSpiceBlock.X_U1.XDCDC.XGamma.XC2.thr)    2.3000                             

(X_PSpiceBlock.X_U4.XAMP.XFilter.IGND_63)    0.0000                             

(X_PSpiceBlock.X_U4.XAMP.XFilter.Plus_66)    1.4402                             

(X_PSpiceBlock.X_U4.XAMP.XFilter.Plus_74)    1.4402                             

(X_PSpiceBlock.X_U4.XAMP.XFilter.Veps_58)-94.52E-09                             

(X_PSpiceBlock.X_U4.XAMP.XInput.IGND_117)     .4953                             

(X_PSpiceBlock.X_U4.XAMP.XInput.Veps_112) 1.919E-09                             

(X_PSpiceBlock.X_U4.XDCDC.XDAB.f_caliber)    1.0000                             

(X_PSpiceBlock.X_U4.XDCDC.XDelta_Gamma.a)    1.0000                             

(X_PSpiceBlock.X_U4.XDCDC.XGamma.XC1.thr)    1.5980                             

(X_PSpiceBlock.X_U4.XDCDC.XGamma.XC2.thr)    2.3000                             

(X_PSpiceBlock.X_U1.XAMP.XFilter.IAVDD_64)    4.4678                            

(X_PSpiceBlock.X_U1.XAMP.XFilter.XBias.96)    2.1362                            

(X_PSpiceBlock.X_U1.XAMP.XFilter.XBias.97)     .9362                            

(X_PSpiceBlock.X_U1.XAMP.XFilter.XBias.98)    2.3905                            

(X_PSpiceBlock.X_U1.XAMP.XFilter.XBias.99)     .9362                            

(X_PSpiceBlock.X_U1.XAMP.XInput.IAVDD_116)   50.0000                            

(X_PSpiceBlock.X_U1.XAMP.XInput.XBias.131)   45.2090                            

(X_PSpiceBlock.X_U1.XDCDC.XDAB.Xc.XDEL1.3)    1.0000                            

(X_PSpiceBlock.X_U1.XDCDC.XDAB.Xc.XDEL1.4)    1.0000                            

(X_PSpiceBlock.X_U1.XDCDC.XDAB.Xc.XDEL1.5)    1.0000                            

(X_PSpiceBlock.X_U4.XAMP.XFilter.IAVDD_64)    4.4678                            

(X_PSpiceBlock.X_U4.XAMP.XFilter.XBias.96)    2.1362                            

(X_PSpiceBlock.X_U4.XAMP.XFilter.XBias.97)     .9362                            

(X_PSpiceBlock.X_U4.XAMP.XFilter.XBias.98)    2.3905                            

(X_PSpiceBlock.X_U4.XAMP.XFilter.XBias.99)     .9362                            

(X_PSpiceBlock.X_U4.XAMP.XInput.IAVDD_116)    5.4953                            

(X_PSpiceBlock.X_U4.XAMP.XInput.XBias.131)     .7041                            

(X_PSpiceBlock.X_U4.XDCDC.XDAB.Xc.XDEL1.3)    1.0000                            

(X_PSpiceBlock.X_U4.XDCDC.XDAB.Xc.XDEL1.4)    1.0000                            

(X_PSpiceBlock.X_U4.XDCDC.XDAB.Xc.XDEL1.5)    1.0000                            

(X_PSpiceBlock.X_U1.XAMP.XFilter.XBias.VT1)    1.1343                           

(X_PSpiceBlock.X_U1.XDCDC.XDAB.ddtVoutFilt)    0.0000                           

(X_PSpiceBlock.X_U4.XAMP.XFilter.XBias.VT1)    1.1343                           

(X_PSpiceBlock.X_U4.XDCDC.XDAB.ddtVoutFilt)    0.0000                           

(X_PSpiceBlock.X_U1.XDCDC.XDAB.Xf_caliber.1)    1.0000                          

(X_PSpiceBlock.X_U1.XDCDC.XDAB.Xf_caliber.2)    1.0000                          

(X_PSpiceBlock.X_U4.XDCDC.XDAB.Xf_caliber.1)    1.0000                          

(X_PSpiceBlock.X_U4.XDCDC.XDAB.Xf_caliber.2)    1.0000                          

(X_PSpiceBlock.X_U1.XAMP.XFilter.XOutputn.86)    2.3437                         

(X_PSpiceBlock.X_U1.XAMP.XFilter.XOutputn.87)     .9366                         

(X_PSpiceBlock.X_U1.XAMP.XFilter.XOutputn.88)     .6952                         

(X_PSpiceBlock.X_U1.XAMP.XFilter.XOutputn.89)     .9830                         

(X_PSpiceBlock.X_U1.XAMP.XFilter.XOutputn.90)    1.4406                         

(X_PSpiceBlock.X_U1.XAMP.XFilter.XOutputn.91)    3.3051                         

(X_PSpiceBlock.X_U1.XAMP.XFilter.XOutputn.92)     .0217                         

(X_PSpiceBlock.X_U1.XAMP.XFilter.XOutputn.93)    3.7725                         

(X_PSpiceBlock.X_U1.XAMP.XFilter.XOutputp.86)    2.3437                         

(X_PSpiceBlock.X_U1.XAMP.XFilter.XOutputp.87)     .9366                         

(X_PSpiceBlock.X_U1.XAMP.XFilter.XOutputp.88)     .6952                         

(X_PSpiceBlock.X_U1.XAMP.XFilter.XOutputp.89)     .9830                         

(X_PSpiceBlock.X_U1.XAMP.XFilter.XOutputp.90)    1.4408                         

(X_PSpiceBlock.X_U1.XAMP.XFilter.XOutputp.91)    3.3051                         

(X_PSpiceBlock.X_U1.XAMP.XFilter.XOutputp.92)     .0217                         

(X_PSpiceBlock.X_U1.XAMP.XFilter.XOutputp.93)    3.7725                         

(X_PSpiceBlock.X_U4.XAMP.XFilter.XOutputn.86)    2.3437                         

(X_PSpiceBlock.X_U4.XAMP.XFilter.XOutputn.87)     .9382                         

(X_PSpiceBlock.X_U4.XAMP.XFilter.XOutputn.88)     .6952                         

(X_PSpiceBlock.X_U4.XAMP.XFilter.XOutputn.89)     .9830                         

(X_PSpiceBlock.X_U4.XAMP.XFilter.XOutputn.90)    1.1003                         

(X_PSpiceBlock.X_U4.XAMP.XFilter.XOutputn.91)    3.3054                         

(X_PSpiceBlock.X_U4.XAMP.XFilter.XOutputn.92)     .0219                         

(X_PSpiceBlock.X_U4.XAMP.XFilter.XOutputn.93)    3.7725                         

(X_PSpiceBlock.X_U4.XAMP.XFilter.XOutputp.86)    2.3437                         

(X_PSpiceBlock.X_U4.XAMP.XFilter.XOutputp.87)     .9359                         

(X_PSpiceBlock.X_U4.XAMP.XFilter.XOutputp.88)     .6952                         

(X_PSpiceBlock.X_U4.XAMP.XFilter.XOutputp.89)     .9830                         

(X_PSpiceBlock.X_U4.XAMP.XFilter.XOutputp.90)    1.7812                         

(X_PSpiceBlock.X_U4.XAMP.XFilter.XOutputp.91)    3.3050                         

(X_PSpiceBlock.X_U4.XAMP.XFilter.XOutputp.92)     .0216                         

(X_PSpiceBlock.X_U4.XAMP.XFilter.XOutputp.93)    3.7725                         

(X_PSpiceBlock.X_U1.XDCDC.XDelta_Gamma.XC1.tm)     .0014                        

(X_PSpiceBlock.X_U4.XDCDC.XDelta_Gamma.XC1.tm)     .0014                        

(X_PSpiceBlock.X_U1.XDCDC.XDelta_Gamma.XC1.thr)    2.2000                       

(X_PSpiceBlock.X_U4.XDCDC.XDelta_Gamma.XC1.thr)    2.2000                       

(X_PSpiceBlock.X_U1.XAMP.XFilter.XBias.Vocmtemp)    1.0001                      

(X_PSpiceBlock.X_U1.XAMP.XFilter.XOutputn.VV_83)    2.2339                      

(X_PSpiceBlock.X_U1.XAMP.XFilter.XOutputp.VV_83)    2.2339                      

(X_PSpiceBlock.X_U1.XDCDC.XDAB.nf_caliber_dummy)    1.0000                      

(X_PSpiceBlock.X_U4.XAMP.XFilter.XBias.Vocmtemp)    1.0001                      

(X_PSpiceBlock.X_U4.XAMP.XFilter.XOutputn.VV_83)    2.2339                      

(X_PSpiceBlock.X_U4.XAMP.XFilter.XOutputp.VV_83)    2.2339                      

(X_PSpiceBlock.X_U4.XDCDC.XDAB.nf_caliber_dummy)    1.0000                      

(X_PSpiceBlock.X_U1.XAMP.XFilter.XOutputn.VGN_85)     .9366                     

(X_PSpiceBlock.X_U1.XAMP.XFilter.XOutputn.VGP_84)    2.3910                     

(X_PSpiceBlock.X_U1.XAMP.XFilter.XOutputp.VGN_85)     .9366                     

(X_PSpiceBlock.X_U1.XAMP.XFilter.XOutputp.VGP_84)    2.3910                     

(X_PSpiceBlock.X_U4.XAMP.XFilter.XOutputn.VGN_85)     .9382                     

(X_PSpiceBlock.X_U4.XAMP.XFilter.XOutputn.VGP_84)    2.3926                     

(X_PSpiceBlock.X_U4.XAMP.XFilter.XOutputp.VGN_85)     .9359                     

(X_PSpiceBlock.X_U4.XAMP.XFilter.XOutputp.VGP_84)    2.3902                     

(X_PSpiceBlock.X_U1.XDCDC.XDAB.Xf_caliber.XDEL1.3)    1.0000                    

(X_PSpiceBlock.X_U1.XDCDC.XDAB.Xf_caliber.XDEL1.4)    1.0000                    

(X_PSpiceBlock.X_U1.XDCDC.XDAB.Xf_caliber.XDEL1.5)    1.0000                    

(X_PSpiceBlock.X_U4.XDCDC.XDAB.Xf_caliber.XDEL1.3)    1.0000                    

(X_PSpiceBlock.X_U4.XDCDC.XDAB.Xf_caliber.XDEL1.4)    1.0000                    

(X_PSpiceBlock.X_U4.XDCDC.XDAB.Xf_caliber.XDEL1.5)    1.0000                




    VOLTAGE SOURCE CURRENTS
    NAME         CURRENT

    X_PSpiceBlock.V_V4  -1.146E-05
    X_PSpiceBlock.V_V5  -9.000E-05
    X_PSpiceBlock.V_V6  -3.699E-02
    X_PSpiceBlock.V_V7   0.000E+00
    X_PSpiceBlock.V_V8   0.000E+00
    X_PSpiceBlock.V_V9   4.951E-06
    X_PSpiceBlock.V_V10  -3.371E-04
    X_PSpiceBlock.X_U2.VCM_MIN   1.863E-09
    X_PSpiceBlock.X_U2.VCM_MAX  -1.864E-09
    X_PSpiceBlock.X_U2.V4   1.155E-05
    X_PSpiceBlock.X_U2.V_ISCp  -1.350E-08
    X_PSpiceBlock.X_U2.V_ISCn   1.250E-08
    X_PSpiceBlock.X_U2.V_GRn   1.600E-07
    X_PSpiceBlock.X_U2.V_GRp  -1.600E-07
    X_PSpiceBlock.X_U2.V_ORp   0.000E+00
    X_PSpiceBlock.X_U2.V_ORn   0.000E+00
    X_PSpiceBlock.X_U2.V11   1.802E-09
    X_PSpiceBlock.X_U2.V12  -1.802E-09
    X_PSpiceBlock.X_U5.VCM_MIN   1.863E-09
    X_PSpiceBlock.X_U5.VCM_MAX  -1.864E-09
    X_PSpiceBlock.X_U5.V4   6.321E-05
    X_PSpiceBlock.X_U5.V_ISCp  -1.350E-08
    X_PSpiceBlock.X_U5.V_ISCn   1.250E-08
    X_PSpiceBlock.X_U5.V_GRn   1.600E-07
    X_PSpiceBlock.X_U5.V_GRp  -1.600E-07
    X_PSpiceBlock.X_U5.V_ORp   0.000E+00
    X_PSpiceBlock.X_U5.V_ORn   0.000E+00
    X_PSpiceBlock.X_U5.V11   1.802E-09
    X_PSpiceBlock.X_U5.V12  -1.802E-09
    X_PSpiceBlock.X_U1.XHLDO.VIZ1   5.009E-06
    X_PSpiceBlock.X_U1.XLDO.VIZ1   5.004E-06
    X_PSpiceBlock.X_U3.X1.V04   3.698E-02
    X_PSpiceBlock.X_U4.XHLDO.VIZ1   5.006E-06
    X_PSpiceBlock.X_U4.XLDO.VIZ1   5.004E-06
    X_PSpiceBlock.X_U1.XDCDC.XDAB.Viout   4.953E-03
    X_PSpiceBlock.X_U1.XDCDC.XDAB.Vf_caliber_dummy   0.000E+00
    X_PSpiceBlock.X_U1.XAMP.XFilter.VPSref   0.000E+00
    X_PSpiceBlock.X_U1.XAMP.XInput.VCMref   0.000E+00
    X_PSpiceBlock.X_U1.XAMP.XInput.VPSref   0.000E+00
    X_PSpiceBlock.X_U4.XDCDC.XDAB.Viout   4.953E-03
    X_PSpiceBlock.X_U4.XDCDC.XDAB.Vf_caliber_dummy   0.000E+00
    X_PSpiceBlock.X_U4.XAMP.XFilter.VPSref   0.000E+00
    X_PSpiceBlock.X_U4.XAMP.XInput.VCMref   0.000E+00
    X_PSpiceBlock.X_U4.XAMP.XInput.VPSref   0.000E+00
    X_PSpiceBlock.X_U1.XAMP.XFilter.XOutputn.VAM2   1.164E-12
    X_PSpiceBlock.X_U1.XAMP.XFilter.XOutputn.VAM1   2.154E-03
    X_PSpiceBlock.X_U1.XAMP.XFilter.XOutputn.Vo21   1.549E-12
    X_PSpiceBlock.X_U1.XAMP.XFilter.XOutputn.Vo22   1.549E-12
    X_PSpiceBlock.X_U1.XAMP.XFilter.XBias.VS2   2.643E-13
    X_PSpiceBlock.X_U1.XAMP.XFilter.XOutputp.VAM2   6.340E-13
    X_PSpiceBlock.X_U1.XAMP.XFilter.XOutputp.VAM1   2.154E-03
    X_PSpiceBlock.X_U1.XAMP.XFilter.XOutputp.Vo21   1.549E-12
    X_PSpiceBlock.X_U1.XAMP.XFilter.XOutputp.Vo22   1.549E-12
    X_PSpiceBlock.X_U4.XAMP.XFilter.XOutputn.VAM2   1.179E-12
    X_PSpiceBlock.X_U4.XAMP.XFilter.XOutputn.VAM1   2.128E-03
    X_PSpiceBlock.X_U4.XAMP.XFilter.XOutputn.Vo21   1.549E-12
    X_PSpiceBlock.X_U4.XAMP.XFilter.XOutputn.Vo22   1.549E-12
    X_PSpiceBlock.X_U4.XAMP.XFilter.XBias.VS2   2.643E-13
    X_PSpiceBlock.X_U4.XAMP.XFilter.XOutputp.VAM2   3.697E-13
    X_PSpiceBlock.X_U4.XAMP.XFilter.XOutputp.VAM1   2.163E-03
    X_PSpiceBlock.X_U4.XAMP.XFilter.XOutputp.Vo21   1.549E-12
    X_PSpiceBlock.X_U4.XAMP.XFilter.XOutputp.Vo22   1.549E-12

    TOTAL POWER DISSIPATION   4.82E-01  WATTS

Convergence problem in transient analysis at Time =  238.4E-15
         Time step =  238.4E-15, minimum allowable step size =  1.575E-12

  These voltages failed to converge:

    V(X_PSpiceBlock.X_U1.XDCDC.XDAB.ddtVoutFilt) =     40.00V  \         0V
    V(X_PSpiceBlock.X_U1.XDCDC.XDAB.deriv) =     40.00V  \         0V
    V(X_PSpiceBlock.X_U1.XDCDC.XDAB.Iout0) =    9.427mV  \    4.953mV
    V(X_PSpiceBlock.X_U1.XDCDC.XDAB.Iout) =    4.995mV  \    4.953mV
    V(X_PSpiceBlock.X_U1.XDCDC.XDAB.Iinp0) =    13.12mV  \    13.01mV
    V(X_PSpiceBlock.X_U4.XDCDC.XDAB.ddtVoutFilt) =     40.00V  \         0V
    V(X_PSpiceBlock.X_U4.XDCDC.XDAB.deriv) =     40.00V  \         0V
    V(X_PSpiceBlock.X_U4.XDCDC.XDAB.Iout0) =    9.426mV  \    4.953mV
    V(X_PSpiceBlock.X_U4.XDCDC.XDAB.Iout) =    4.995mV  \    4.953mV
    V(X_PSpiceBlock.X_U4.XDCDC.XDAB.Iinp0) =    13.12mV  \    13.01mV
    V(X_PSpiceBlock.X_U4.XAMP.NOut1_51) =     1.101V  \     1.100V
    V(X_PSpiceBlock.X_U1.XDCDC.XDAB.Xslewo.1) =    9.427mV  \    4.953mV
    V(X_PSpiceBlock.X_U1.XDCDC.XDAB.Xslewo.2) =    4.995mV  \    4.953mV
    V(X_PSpiceBlock.X_U1.XDCDC.XDAB.Xslewi.1) =    13.12mV  \    13.01mV
    V(X_PSpiceBlock.X_U1.XAMP.XFilter.XOutputn.92) =    21.68mV  \    21.66mV
    V(X_PSpiceBlock.X_U1.XAMP.XFilter.XOutputp.92) =    21.68mV  \    21.66mV
    V(X_PSpiceBlock.X_U4.XDCDC.XDAB.Xslewo.1) =    9.426mV  \    4.953mV
    V(X_PSpiceBlock.X_U4.XDCDC.XDAB.Xslewo.2) =    4.995mV  \    4.953mV
    V(X_PSpiceBlock.X_U4.XDCDC.XDAB.Xslewi.1) =    13.12mV  \    13.01mV
    V(X_PSpiceBlock.X_U4.XAMP.XFilter.XOutputn.92) =    21.95mV  \    21.93mV
    V(X_PSpiceBlock.X_U4.XAMP.XFilter.XOutputp.92) =    21.59mV  \    21.57mV

  These supply currents failed to converge:

    I(X_PSpiceBlock.X_U2.E1)  =    7.386nA  \    1.209pA
    I(X_PSpiceBlock.X_U2.E2)  =   -6.588pA  \    11.11pA
    I(X_PSpiceBlock.X_U5.E1)  =    7.839nA  \    1.329pA
    I(X_PSpiceBlock.X_U5.E2)  =   -1.128nA  \   -1.113nA
    I(X_PSpiceBlock.X_U1.XAMP.XFilter.EVCVS2) =    8.981nA  \    3.370nA
    I(X_PSpiceBlock.X_U1.XAMP.XFilter.EVCVS1) =    8.006nA  \    2.395nA
    I(X_PSpiceBlock.X_U1.XAMP.XFilter.Epsp) =    11.36uA  \   -8.732pA
    I(X_PSpiceBlock.X_U1.XAMP.XFilter.Epsn) =   -11.36uA  \    8.732pA
    I(X_PSpiceBlock.X_U4.XAMP.XFilter.EVCVS2) =    1.711uA  \    1.705uA
    I(X_PSpiceBlock.X_U4.XAMP.XFilter.EVCVS1) =   -1.694uA  \   -1.700uA
    I(X_PSpiceBlock.X_U4.XAMP.XFilter.Epsp) =    11.36uA  \   -8.730pA
    I(X_PSpiceBlock.X_U4.XAMP.XFilter.Epsn) =   -11.36uA  \    8.738pA
    I(X_PSpiceBlock.X_U1.XDCDC.XDAB.Xslewo.E1) =   -22.16mA  \   -4.952pA
    I(X_PSpiceBlock.X_U1.XDCDC.XDAB.Xslewi.E1) =  -549.90uA  \   -13.01pA
    I(X_PSpiceBlock.X_U1.XAMP.XFilter.XBias.EVSOCM) =   -22.73uA  \   -2.862nA
    I(X_PSpiceBlock.X_U1.XAMP.XFilter.XBias.EVCVS1) =    12.32uA  \   -34.92pA
    I(X_PSpiceBlock.X_U1.XAMP.XFilter.XBias.EGND) =    12.32uA  \   -34.92pA
    I(X_PSpiceBlock.X_U1.XAMP.XFilter.XBias.EBMG) =    11.00pA  \    13.55fA
    I(X_PSpiceBlock.X_U1.XAMP.XFilter.XBias.EVMP1) =   416.56pA  \    2.568pA
    I(X_PSpiceBlock.X_U1.XAMP.XFilter.XBias.EVMN1) =   412.37pA  \   -1.812pA
    I(X_PSpiceBlock.X_U4.XDCDC.XDAB.Xslewo.E1) =   -22.16mA  \   -4.953pA
    I(X_PSpiceBlock.X_U4.XDCDC.XDAB.Xslewi.E1) =  -549.80uA  \   -13.01pA
    I(X_PSpiceBlock.X_U4.XAMP.XFilter.XBias.EVSOCM) =   -22.73uA  \   -2.862nA
    I(X_PSpiceBlock.X_U4.XAMP.XFilter.XBias.EVCVS1) =    12.32uA  \   -34.92pA
    I(X_PSpiceBlock.X_U4.XAMP.XFilter.XBias.EGND) =    12.32uA  \   -34.92pA
    I(X_PSpiceBlock.X_U4.XAMP.XFilter.XBias.EBMG) =    4.222pA  \    6.899fA
    I(X_PSpiceBlock.X_U4.XAMP.XFilter.XBias.EVMP1) =   415.52pA  \    1.528pA
    I(X_PSpiceBlock.X_U4.XAMP.XFilter.XBias.EVMN1) =   412.63pA  \   -1.552pA
    I(X_PSpiceBlock.V_V9)     =    4.957uA  \    4.951uA
    I(X_PSpiceBlock.X_U1.XDCDC.XDAB.Viout) =    4.995mA  \    4.953mA
    I(X_PSpiceBlock.X_U4.XDCDC.XDAB.Viout) =    4.995mA  \    4.953mA
    I(X_PSpiceBlock.X_U1.XAMP.XFilter.XOutputn.VAM2) =    1.678uA  \    1.164pA
    I(X_PSpiceBlock.X_U1.XAMP.XFilter.XOutputp.VAM2) =    1.678uA  \   633.98fA
    I(X_PSpiceBlock.X_U4.XAMP.XFilter.XOutputn.VAM2) =    1.677uA  \    1.179pA
    I(X_PSpiceBlock.X_U4.XAMP.XFilter.XOutputp.VAM2) =    1.678uA  \   369.73fA
    I(X_PSpiceBlock.X_U2.H1)  =    3.318nA  \   -11.55pA
    I(X_PSpiceBlock.X_U5.H1)  =    2.627nA  \   -63.20pA

  These devices failed to converge:
    X_PSpiceBlock.X_U1.XDCDC.XDAB.Ecdummy X_PSpiceBlock.X_U4.XDCDC.XDAB.Ecdummy 
    X_PSpiceBlock.X_U1.XDCDC.XDAB.Xslewo.G1 
    X_PSpiceBlock.X_U1.XDCDC.XDAB.Xslewi.G1 
    X_PSpiceBlock.X_U4.XDCDC.XDAB.Xslewo.G1 
    X_PSpiceBlock.X_U4.XDCDC.XDAB.Xslewi.G1 
    X_PSpiceBlock.X_U1.XAMP.XFilter.XBias.XU5.GVocmtemp 
    X_PSpiceBlock.X_U4.XAMP.XFilter.XBias.XU5.GVocmtemp 



  Last node voltages tried were:

 NODE   VOLTAGE     NODE   VOLTAGE     NODE   VOLTAGE     NODE   VOLTAGE


(X_PSpiceBlock.3.3V)    3.3267        (X_PSpiceBlock.CHASIS)   45.0000          

(X_PSpiceBlock.N00298)   90.0000      (X_PSpiceBlock.N00819)   45.0000          

(X_PSpiceBlock.N01247)   49.2660      (X_PSpiceBlock.N01903)   48.1500          

(X_PSpiceBlock.N02240)    2.9000      (X_PSpiceBlock.N02573)    3.3266          

(X_PSpiceBlock.N02757)    1.4407      (X_PSpiceBlock.N02759)    1.5561          

(X_PSpiceBlock.N02764)    1.4409      (X_PSpiceBlock.N02770)    1.5555          

(X_PSpiceBlock.N02985)    1.6514      (X_PSpiceBlock.N15218)   45.0000          

(X_PSpiceBlock.N25400)   45.0000      (X_PSpiceBlock.N28394)   12.0000          

(X_PSpiceBlock.N28882)    0.0000      (X_PSpiceBlock.N33797)    0.0000          

(X_PSpiceBlock.N34013)    0.0000      (X_PSpiceBlock.N34976)    1.6500          

(X_PSpiceBlock.N37666)    4.2660      (X_PSpiceBlock.N37750)    2.9000          

(X_PSpiceBlock.N37922)    3.3266      (X_PSpiceBlock.N38024)    3.6454          

(X_PSpiceBlock.N38112)     .4953      (X_PSpiceBlock.N38186)     .8360          

(X_PSpiceBlock.N38200)    1.7813      (X_PSpiceBlock.N38266)    1.1003          

(X_PSpiceBlock.N38364)    2.7754      (X_PSpiceBlock.N38372)    1.7324          

(X_PSpiceBlock.N38550)    1.7317      (X_PSpiceBlock.N38648)    1.6500          

(X_PSpiceBlock.N38805)   90.0000      (X_PSpiceBlock.N39190)     .8360          

(X_PSpiceBlock.X_U2.MID)    1.6625    (X_PSpiceBlock.X_U5.MID)    1.6625        

(X_PSpiceBlock.X_U2.ESDn)    1.5561   (X_PSpiceBlock.X_U2.ESDp)    1.5555       

(X_PSpiceBlock.X_U2.N001)    1.5522   (X_PSpiceBlock.X_U2.N002)    1.6625       

(X_PSpiceBlock.X_U2.N003)   15.1630   (X_PSpiceBlock.X_U2.N004)     .0033       

(X_PSpiceBlock.X_U2.N005)    1.6625   (X_PSpiceBlock.X_U2.N006)    1.6626       

(X_PSpiceBlock.X_U2.N007)    3.3234   (X_PSpiceBlock.X_U2.N008)  161.6600       

(X_PSpiceBlock.X_U2.N009)    3.3194   (X_PSpiceBlock.X_U2.N010)    3.3194       

(X_PSpiceBlock.X_U2.N011)    1.6625   (X_PSpiceBlock.X_U2.N012)    1.6625       

(X_PSpiceBlock.X_U2.N013)    1.6625   (X_PSpiceBlock.X_U2.N014)    1.6625       

(X_PSpiceBlock.X_U2.N015)    -.0205   (X_PSpiceBlock.X_U2.N016)    -.0205       

(X_PSpiceBlock.X_U2.N017)    -.0205   (X_PSpiceBlock.X_U2.N018)    3.5795       

(X_PSpiceBlock.X_U2.N019)    3.5795   (X_PSpiceBlock.X_U2.N020)    3.5795       

(X_PSpiceBlock.X_U2.N021)    1.7795   (X_PSpiceBlock.X_U2.N022)    1.6625       

(X_PSpiceBlock.X_U2.N023)    1.6625   (X_PSpiceBlock.X_U2.N024)    1.6625       

(X_PSpiceBlock.X_U2.N025)    1.6625   (X_PSpiceBlock.X_U2.N026)    1.6625       

(X_PSpiceBlock.X_U2.N027)    1.6625   (X_PSpiceBlock.X_U2.N028)     .0066       

(X_PSpiceBlock.X_U2.N029)     .0066   (X_PSpiceBlock.X_U2.N030)    1.6625       

(X_PSpiceBlock.X_U2.N031)    1.6625   (X_PSpiceBlock.X_U2.N032)    1.5560       

(X_PSpiceBlock.X_U2.N033)    1.5560   (X_PSpiceBlock.X_U2.N034)  -10.8370       

(X_PSpiceBlock.X_U2.N035)    1.5560   (X_PSpiceBlock.X_U2.N036)    1.5561       

(X_PSpiceBlock.X_U2.N037) -158.3400   (X_PSpiceBlock.X_U2.N038)    1.5555       

(X_PSpiceBlock.X_U2.N039)    1.5561   (X_PSpiceBlock.X_U2.N040)    1.5561       

(X_PSpiceBlock.X_U2.N041)    1.6625   (X_PSpiceBlock.X_U2.N042)    3.5267       

(X_PSpiceBlock.X_U2.N043)    -.2000   (X_PSpiceBlock.X_U2.N044)    1.5561       

(X_PSpiceBlock.X_U2.N045)    1.6741   (X_PSpiceBlock.X_U2.N046)    1.6514       

(X_PSpiceBlock.X_U2.N047)    1.7795   (X_PSpiceBlock.X_U2.N048)   13.0970       

(X_PSpiceBlock.X_U2.N049)    4.0582   (X_PSpiceBlock.X_U2.N050)   13.0890       

(X_PSpiceBlock.X_U2.N051)    1.6739   (X_PSpiceBlock.X_U2.N052)   13.0880       

(X_PSpiceBlock.X_U2.N053)    1.6514   (X_PSpiceBlock.X_U2.N054)    1.7795       

(X_PSpiceBlock.X_U2.N055)    3.3267   (X_PSpiceBlock.X_U2.N056)    1.6625       

(X_PSpiceBlock.X_U2.N057) 1.666E-06   (X_PSpiceBlock.X_U2.N058)    1.6625       

(X_PSpiceBlock.X_U2.N059)    1.6625   (X_PSpiceBlock.X_U2.N060)    1.6625       

(X_PSpiceBlock.X_U2.N061)    1.6625   (X_PSpiceBlock.X_U2.N062)    1.6625       

(X_PSpiceBlock.X_U2.VCLP)    1.7795   (X_PSpiceBlock.X_U5.ESDn)    1.7324       

(X_PSpiceBlock.X_U5.ESDp)    1.7317   (X_PSpiceBlock.X_U5.N001)    1.7338       

(X_PSpiceBlock.X_U5.N002)    1.6625   (X_PSpiceBlock.X_U5.N003)   15.1630       

(X_PSpiceBlock.X_U5.N004)     .0033   (X_PSpiceBlock.X_U5.N005)    1.6625       

(X_PSpiceBlock.X_U5.N006)    1.6626   (X_PSpiceBlock.X_U5.N007)    3.3234       

(X_PSpiceBlock.X_U5.N008)  161.6600   (X_PSpiceBlock.X_U5.N009)    3.3166       

(X_PSpiceBlock.X_U5.N010)    3.3166   (X_PSpiceBlock.X_U5.N011)    1.6625       

(X_PSpiceBlock.X_U5.N012)    1.6625   (X_PSpiceBlock.X_U5.N013)    1.6625       

(X_PSpiceBlock.X_U5.N014)    1.6625   (X_PSpiceBlock.X_U5.N015)    1.8211       

(X_PSpiceBlock.X_U5.N016)    1.8211   (X_PSpiceBlock.X_U5.N017)    1.8211       

(X_PSpiceBlock.X_U5.N018)    5.4211   (X_PSpiceBlock.X_U5.N019)    5.4211       

[...]

(X_PSpiceBlock.X_U4.XHLDO.VACin_21)    1.7454                                   

(X_PSpiceBlock.X_U1.XAMP.XFilter.67)-28.35E-15                                  

(X_PSpiceBlock.X_U1.XAMP.XFilter.68)-94.52E-09                                  

(X_PSpiceBlock.X_U1.XAMP.XFilter.69) 1.456E-15                                  

(X_PSpiceBlock.X_U1.XAMP.XFilter.70)-94.52E-09                                  

(X_PSpiceBlock.X_U1.XAMP.XFilter.71)    3.3000                                  

(X_PSpiceBlock.X_U1.XAMP.XFilter.72)-295.0E-18                                  

(X_PSpiceBlock.X_U1.XAMP.XFilter.75)    1.4395                                  

(X_PSpiceBlock.X_U1.XAMP.XFilter.76)    1.4398                                  

(X_PSpiceBlock.X_U1.XAMP.XFilter.77)    1.4397                                  

(X_PSpiceBlock.X_U1.XAMP.XFilter.78)    1.4395                                  

(X_PSpiceBlock.X_U1.XAMP.XFilter.79)    1.4397                                  

(X_PSpiceBlock.X_U1.XAMP.XFilter.80)    1.4400                                  

(X_PSpiceBlock.X_U1.XAMP.XFilter.81)    1.4402                                  

(X_PSpiceBlock.X_U1.XAMP.XFilter.82)    1.4402                                  

(X_PSpiceBlock.X_U1.XAMP.XInput.118)   45.0000                                  

(X_PSpiceBlock.X_U1.XAMP.XInput.120)   46.5750                                  

(X_PSpiceBlock.X_U1.XAMP.XInput.121)   46.5750                                  

(X_PSpiceBlock.X_U1.XAMP.XInput.123)    0.0000                                  

(X_PSpiceBlock.X_U1.XAMP.XInput.124)    0.0000                                  

(X_PSpiceBlock.X_U1.XAMP.XInput.125)-573.4E-18                                  

(X_PSpiceBlock.X_U1.XAMP.XInput.126)-3.686E-09                                  

(X_PSpiceBlock.X_U1.XAMP.XInput.127) 135.5E-18                                  

(X_PSpiceBlock.X_U1.XAMP.XInput.128)-24.29E-18                                  

(X_PSpiceBlock.X_U1.XAMP.XInput.130)   48.1500                                  

(X_PSpiceBlock.X_U1.XAMP.XInput.VOS)-102.0E-06                                  

(X_PSpiceBlock.X_U1.XDCDC.XDAB.Iinp)     .0130                                  

(X_PSpiceBlock.X_U1.XDCDC.XDAB.Iout)     .0050                                  

(X_PSpiceBlock.X_U1.XDCDC.XDAB.Xb.1)    0.0000                                  

(X_PSpiceBlock.X_U1.XDCDC.XDAB.Xb.2)    0.0000                                  

(X_PSpiceBlock.X_U1.XDCDC.XDAB.Xc.1)     .9465                                  

(X_PSpiceBlock.X_U1.XDCDC.XDAB.Xc.2)     .9978                                  

(X_PSpiceBlock.X_U4.XAMP.XFilter.67)-28.34E-15                                  

(X_PSpiceBlock.X_U4.XAMP.XFilter.68)-94.52E-09                                  

(X_PSpiceBlock.X_U4.XAMP.XFilter.69) 1.456E-15                                  

(X_PSpiceBlock.X_U4.XAMP.XFilter.70)-94.52E-09                                  

(X_PSpiceBlock.X_U4.XAMP.XFilter.71)    3.3000                                  

(X_PSpiceBlock.X_U4.XAMP.XFilter.72)-294.9E-18                                  

(X_PSpiceBlock.X_U4.XAMP.XFilter.75)    1.0991                                  

(X_PSpiceBlock.X_U4.XAMP.XFilter.76)    1.0994                                  

(X_PSpiceBlock.X_U4.XAMP.XFilter.77)    1.7801                                  

(X_PSpiceBlock.X_U4.XAMP.XFilter.78)    1.0991                                  

(X_PSpiceBlock.X_U4.XAMP.XFilter.79)    1.7801                                  

(X_PSpiceBlock.X_U4.XAMP.XFilter.80)    1.7804                                  

(X_PSpiceBlock.X_U4.XAMP.XFilter.81)    1.4402                                  

(X_PSpiceBlock.X_U4.XAMP.XFilter.82)    1.4402                                  

(X_PSpiceBlock.X_U4.XAMP.XInput.118)     .8360                                  

(X_PSpiceBlock.X_U4.XAMP.XInput.120)    2.0703                                  

(X_PSpiceBlock.X_U4.XAMP.XInput.121)    2.0703                                  

(X_PSpiceBlock.X_U4.XAMP.XInput.123)    0.0000                                  

(X_PSpiceBlock.X_U4.XAMP.XInput.124)    0.0000                                  

(X_PSpiceBlock.X_U4.XAMP.XInput.125) 2.785E-18                                  

(X_PSpiceBlock.X_U4.XAMP.XInput.126)-1.919E-09                                  

(X_PSpiceBlock.X_U4.XAMP.XInput.127) 39.04E-18                                  

(X_PSpiceBlock.X_U4.XAMP.XInput.128)-73.06E-21                                  

(X_PSpiceBlock.X_U4.XAMP.XInput.130)    3.6453                                  

(X_PSpiceBlock.X_U4.XAMP.XInput.VOS)-102.0E-06                                  

(X_PSpiceBlock.X_U4.XDCDC.XDAB.Iinp)     .0130                                  

(X_PSpiceBlock.X_U4.XDCDC.XDAB.Iout)     .0050                                  

(X_PSpiceBlock.X_U4.XDCDC.XDAB.Xb.1)    0.0000                                  

(X_PSpiceBlock.X_U4.XDCDC.XDAB.Xb.2)    0.0000                                  

(X_PSpiceBlock.X_U4.XDCDC.XDAB.Xc.1)     .9465                                  

(X_PSpiceBlock.X_U4.XDCDC.XDAB.Xc.2)     .9978                                  

(X_PSpiceBlock.X_U1.XAMP.XDFilter.55) 195.2E-06                                 

(X_PSpiceBlock.X_U1.XAMP.XDFilter.56) 195.2E-06                                 

(X_PSpiceBlock.X_U1.XAMP.XDFilter.57) 195.2E-06                                 

(X_PSpiceBlock.X_U1.XAMP.XFilter.Vt0)     .9362                                 

(X_PSpiceBlock.X_U1.XAMP.XInput.Vecm) 10.30E-12                                 

(X_PSpiceBlock.X_U1.XAMP.XInput.VICM)   45.0000                                 

(X_PSpiceBlock.X_U1.XDCDC.XDAB.deriv)   39.9110                                 

(X_PSpiceBlock.X_U1.XDCDC.XDAB.Iinp0)     .0130                                 

(X_PSpiceBlock.X_U1.XDCDC.XDAB.Iout0)     .0094                                 

(X_PSpiceBlock.X_U4.XAMP.XDFilter.55)     .6812                                 

(X_PSpiceBlock.X_U4.XAMP.XDFilter.56)     .6812                                 

(X_PSpiceBlock.X_U4.XAMP.XDFilter.57)     .6812                                 

(X_PSpiceBlock.X_U4.XAMP.XFilter.Vt0)     .9362                                 

(X_PSpiceBlock.X_U4.XAMP.XInput.Vecm)-1.704E-06                                 

(X_PSpiceBlock.X_U4.XAMP.XInput.VICM)     .6657                                 

(X_PSpiceBlock.X_U4.XDCDC.XDAB.deriv)   39.9110                                 

(X_PSpiceBlock.X_U4.XDCDC.XDAB.Iinp0)     .0130                                 

(X_PSpiceBlock.X_U4.XDCDC.XDAB.Iout0)     .0094                                 

(X_PSpiceBlock.X_U1.XAMP.XFilter.Bias)     .8936                                

(X_PSpiceBlock.X_U1.XAMP.XFilter.Vt0p)    2.3905                                

(X_PSpiceBlock.X_U1.XAMP.XInput.CMref)   45.0000                                

(X_PSpiceBlock.X_U1.XDCDC.XDAB.bdummy)    0.0000                                

(X_PSpiceBlock.X_U1.XDCDC.XDAB.cdummy)    0.0000                                

(X_PSpiceBlock.X_U1.XDCDC.XDAB.Voutpi)   49.2660                                

(X_PSpiceBlock.X_U4.XAMP.XFilter.Bias)     .8936                                

(X_PSpiceBlock.X_U4.XAMP.XFilter.Vt0p)    2.3905                                

(X_PSpiceBlock.X_U4.XAMP.XInput.CMref)     .4953                                

(X_PSpiceBlock.X_U4.XDCDC.XDAB.bdummy)    0.0000                                

(X_PSpiceBlock.X_U4.XDCDC.XDAB.cdummy)    0.0000                                

(X_PSpiceBlock.X_U4.XDCDC.XDAB.Voutpi)    4.2660                                

(X_PSpiceBlock.X_U1.XAMP.XFilter.VM_59)    2.2339                               

(X_PSpiceBlock.X_U1.XAMP.XInput.Vcmabs)   45.5000                               

(X_PSpiceBlock.X_U1.XAMP.XInput.VM_115)   46.9000                               

(X_PSpiceBlock.X_U1.XAMP.XInput.XU5.40) 102.0E-06                               

(X_PSpiceBlock.X_U4.XAMP.XFilter.VM_59)    2.2339                               

(X_PSpiceBlock.X_U4.XAMP.XInput.Vcmabs)     .8249                               

(X_PSpiceBlock.X_U4.XAMP.XInput.VM_115)    2.3953                               

(X_PSpiceBlock.X_U4.XAMP.XInput.XU5.40) 102.0E-06                               

(X_PSpiceBlock.X_U1.XAMP.XFilter.Neg_65)    1.4402                              

(X_PSpiceBlock.X_U1.XAMP.XFilter.Neg_73)    1.4402                              

(X_PSpiceBlock.X_U1.XAMP.XInput.Venoise)    0.0000                              

(X_PSpiceBlock.X_U1.XAMP.XInput.XU2.thr)   47.5100                              

(X_PSpiceBlock.X_U1.XAMP.XInput.XU_1.10)    1.0000                              

(X_PSpiceBlock.X_U1.XAMP.XInput.XU_1.20)   -1.8883                              

(X_PSpiceBlock.X_U1.XAMP.XInput.XU_2.10)    1.0000                              

(X_PSpiceBlock.X_U1.XAMP.XInput.XU_2.20)   -1.8883                              

(X_PSpiceBlock.X_U1.XDCDC.XDAB.Xslewi.1)     .0130                              

(X_PSpiceBlock.X_U1.XDCDC.XDAB.Xslewi.2)     .0130                              

(X_PSpiceBlock.X_U1.XDCDC.XDAB.Xslewo.1)     .0094                              

(X_PSpiceBlock.X_U1.XDCDC.XDAB.Xslewo.2)     .0050                              

(X_PSpiceBlock.X_U1.XDCDC.XGamma.XC1.tm) 767.4E-06                              

(X_PSpiceBlock.X_U1.XDCDC.XGamma.XC2.tm)     .0017                              

(X_PSpiceBlock.X_U4.XAMP.XFilter.Neg_65)    1.4402                              

(X_PSpiceBlock.X_U4.XAMP.XFilter.Neg_73)    1.4402                              

(X_PSpiceBlock.X_U4.XAMP.XInput.Venoise)    0.0000                              

(X_PSpiceBlock.X_U4.XAMP.XInput.XU2.thr)    3.0053                              

(X_PSpiceBlock.X_U4.XAMP.XInput.XU_1.10)    1.0000                              

(X_PSpiceBlock.X_U4.XAMP.XInput.XU_1.20)   -1.8882                              

(X_PSpiceBlock.X_U4.XAMP.XInput.XU_2.10)    1.0000                              

(X_PSpiceBlock.X_U4.XAMP.XInput.XU_2.20)   -1.8882                              

(X_PSpiceBlock.X_U4.XDCDC.XDAB.Xslewi.1)     .0130                              

(X_PSpiceBlock.X_U4.XDCDC.XDAB.Xslewi.2)     .0130                              

(X_PSpiceBlock.X_U4.XDCDC.XDAB.Xslewo.1)     .0094                              

(X_PSpiceBlock.X_U4.XDCDC.XDAB.Xslewo.2)     .0050                              

(X_PSpiceBlock.X_U4.XDCDC.XGamma.XC1.tm) 767.4E-06                              

(X_PSpiceBlock.X_U4.XDCDC.XGamma.XC2.tm)     .0017                              

(X_PSpiceBlock.X_U1.XAMP.XFilter.IGND_63)    0.0000                             

(X_PSpiceBlock.X_U1.XAMP.XFilter.Plus_66)    1.4413                             

(X_PSpiceBlock.X_U1.XAMP.XFilter.Plus_74)    1.4413                             

(X_PSpiceBlock.X_U1.XAMP.XFilter.Veps_58)-94.52E-09                             

(X_PSpiceBlock.X_U1.XAMP.XInput.IGND_117)   45.0000                             

(X_PSpiceBlock.X_U1.XAMP.XInput.Veps_112) 3.686E-09                             

(X_PSpiceBlock.X_U1.XDCDC.XDAB.f_caliber)    1.0000                             

(X_PSpiceBlock.X_U1.XDCDC.XDelta_Gamma.a)    1.0000                             

(X_PSpiceBlock.X_U1.XDCDC.XGamma.XC1.thr)    1.5980                             

(X_PSpiceBlock.X_U1.XDCDC.XGamma.XC2.thr)    2.3000                             

(X_PSpiceBlock.X_U4.XAMP.XFilter.IGND_63)    0.0000                             

(X_PSpiceBlock.X_U4.XAMP.XFilter.Plus_66)    1.4413                             

(X_PSpiceBlock.X_U4.XAMP.XFilter.Plus_74)    1.4413                             

(X_PSpiceBlock.X_U4.XAMP.XFilter.Veps_58)-94.52E-09                             

(X_PSpiceBlock.X_U4.XAMP.XInput.IGND_117)     .4953                             

(X_PSpiceBlock.X_U4.XAMP.XInput.Veps_112) 1.919E-09                             

(X_PSpiceBlock.X_U4.XDCDC.XDAB.f_caliber)    1.0000                             

(X_PSpiceBlock.X_U4.XDCDC.XDelta_Gamma.a)    1.0000                             

(X_PSpiceBlock.X_U4.XDCDC.XGamma.XC1.thr)    1.5980                             

(X_PSpiceBlock.X_U4.XDCDC.XGamma.XC2.thr)    2.3000                             

(X_PSpiceBlock.X_U1.XAMP.XFilter.IAVDD_64)    4.4678                            

(X_PSpiceBlock.X_U1.XAMP.XFilter.XBias.96)    2.1362                            

(X_PSpiceBlock.X_U1.XAMP.XFilter.XBias.97)     .9362                            

(X_PSpiceBlock.X_U1.XAMP.XFilter.XBias.98)    2.3905                            

(X_PSpiceBlock.X_U1.XAMP.XFilter.XBias.99)     .9362                            

(X_PSpiceBlock.X_U1.XAMP.XInput.IAVDD_116)   50.0000                            

(X_PSpiceBlock.X_U1.XAMP.XInput.XBias.131)   45.2090                            

(X_PSpiceBlock.X_U1.XDCDC.XDAB.Xc.XDEL1.3)    0.0000                            

(X_PSpiceBlock.X_U1.XDCDC.XDAB.Xc.XDEL1.4)     .9465                            

(X_PSpiceBlock.X_U1.XDCDC.XDAB.Xc.XDEL1.5)     .2980                            

(X_PSpiceBlock.X_U4.XAMP.XFilter.IAVDD_64)    4.4678                            

(X_PSpiceBlock.X_U4.XAMP.XFilter.XBias.96)    2.1362                            

(X_PSpiceBlock.X_U4.XAMP.XFilter.XBias.97)     .9362                            

(X_PSpiceBlock.X_U4.XAMP.XFilter.XBias.98)    2.3905                            

(X_PSpiceBlock.X_U4.XAMP.XFilter.XBias.99)     .9362                            

(X_PSpiceBlock.X_U4.XAMP.XInput.IAVDD_116)    5.4953                            

(X_PSpiceBlock.X_U4.XAMP.XInput.XBias.131)     .7041                            

(X_PSpiceBlock.X_U4.XDCDC.XDAB.Xc.XDEL1.3)    0.0000                            

(X_PSpiceBlock.X_U4.XDCDC.XDAB.Xc.XDEL1.4)     .9465                            

(X_PSpiceBlock.X_U4.XDCDC.XDAB.Xc.XDEL1.5)     .2980                            

(X_PSpiceBlock.X_U1.XAMP.XFilter.XBias.VT1)    1.1343                           

(X_PSpiceBlock.X_U1.XDCDC.XDAB.ddtVoutFilt)   40.0000                           

(X_PSpiceBlock.X_U4.XAMP.XFilter.XBias.VT1)    1.1343                           

(X_PSpiceBlock.X_U4.XDCDC.XDAB.ddtVoutFilt)   40.0000                           

(X_PSpiceBlock.X_U1.XDCDC.XDAB.Xf_caliber.1)    1.0000                          

(X_PSpiceBlock.X_U1.XDCDC.XDAB.Xf_caliber.2)    1.0000                          

(X_PSpiceBlock.X_U4.XDCDC.XDAB.Xf_caliber.1)    1.0000                          

(X_PSpiceBlock.X_U4.XDCDC.XDAB.Xf_caliber.2)    1.0000                          

(X_PSpiceBlock.X_U1.XAMP.XFilter.XOutputn.86)    2.3437                         

(X_PSpiceBlock.X_U1.XAMP.XFilter.XOutputn.87)     .9367                         

(X_PSpiceBlock.X_U1.XAMP.XFilter.XOutputn.88)     .6952                         

(X_PSpiceBlock.X_U1.XAMP.XFilter.XOutputn.89)     .9830                         

(X_PSpiceBlock.X_U1.XAMP.XFilter.XOutputn.90)    1.4407                         

(X_PSpiceBlock.X_U1.XAMP.XFilter.XOutputn.91)    3.3052                         

(X_PSpiceBlock.X_U1.XAMP.XFilter.XOutputn.92)     .0217                         

(X_PSpiceBlock.X_U1.XAMP.XFilter.XOutputn.93)    3.7725                         

(X_PSpiceBlock.X_U1.XAMP.XFilter.XOutputp.86)    2.3437                         

(X_PSpiceBlock.X_U1.XAMP.XFilter.XOutputp.87)     .9367                         

(X_PSpiceBlock.X_U1.XAMP.XFilter.XOutputp.88)     .6952                         

(X_PSpiceBlock.X_U1.XAMP.XFilter.XOutputp.89)     .9830                         

(X_PSpiceBlock.X_U1.XAMP.XFilter.XOutputp.90)    1.4409                         

(X_PSpiceBlock.X_U1.XAMP.XFilter.XOutputp.91)    3.3052                         

(X_PSpiceBlock.X_U1.XAMP.XFilter.XOutputp.92)     .0217                         

(X_PSpiceBlock.X_U1.XAMP.XFilter.XOutputp.93)    3.7725                         

(X_PSpiceBlock.X_U4.XAMP.XFilter.XOutputn.86)    2.3437                         

(X_PSpiceBlock.X_U4.XAMP.XFilter.XOutputn.87)     .9383                         

(X_PSpiceBlock.X_U4.XAMP.XFilter.XOutputn.88)     .6952                         

(X_PSpiceBlock.X_U4.XAMP.XFilter.XOutputn.89)     .9830                         

(X_PSpiceBlock.X_U4.XAMP.XFilter.XOutputn.90)    1.1003                         

(X_PSpiceBlock.X_U4.XAMP.XFilter.XOutputn.91)    3.3054                         

(X_PSpiceBlock.X_U4.XAMP.XFilter.XOutputn.92)     .0220                         

(X_PSpiceBlock.X_U4.XAMP.XFilter.XOutputn.93)    3.7725                         

(X_PSpiceBlock.X_U4.XAMP.XFilter.XOutputp.86)    2.3437                         

(X_PSpiceBlock.X_U4.XAMP.XFilter.XOutputp.87)     .9359                         

(X_PSpiceBlock.X_U4.XAMP.XFilter.XOutputp.88)     .6952                         

(X_PSpiceBlock.X_U4.XAMP.XFilter.XOutputp.89)     .9830                         

(X_PSpiceBlock.X_U4.XAMP.XFilter.XOutputp.90)    1.7813                         

(X_PSpiceBlock.X_U4.XAMP.XFilter.XOutputp.91)    3.3051                         

(X_PSpiceBlock.X_U4.XAMP.XFilter.XOutputp.92)     .0216                         

(X_PSpiceBlock.X_U4.XAMP.XFilter.XOutputp.93)    3.7725                         

(X_PSpiceBlock.X_U1.XDCDC.XDelta_Gamma.XC1.tm)     .0014                        

(X_PSpiceBlock.X_U4.XDCDC.XDelta_Gamma.XC1.tm)     .0014                        

(X_PSpiceBlock.X_U1.XDCDC.XDelta_Gamma.XC1.thr)    2.2000                       

(X_PSpiceBlock.X_U4.XDCDC.XDelta_Gamma.XC1.thr)    2.2000                       

(X_PSpiceBlock.X_U1.XAMP.XFilter.XBias.Vocmtemp)    1.0009                      

(X_PSpiceBlock.X_U1.XAMP.XFilter.XOutputn.VV_83)    2.2339                      

(X_PSpiceBlock.X_U1.XAMP.XFilter.XOutputp.VV_83)    2.2339                      

(X_PSpiceBlock.X_U1.XDCDC.XDAB.nf_caliber_dummy)    1.0000                      

(X_PSpiceBlock.X_U4.XAMP.XFilter.XBias.Vocmtemp)    1.0009                      

(X_PSpiceBlock.X_U4.XAMP.XFilter.XOutputn.VV_83)    2.2339                      

(X_PSpiceBlock.X_U4.XAMP.XFilter.XOutputp.VV_83)    2.2339                      

(X_PSpiceBlock.X_U4.XDCDC.XDAB.nf_caliber_dummy)    1.0000                      

(X_PSpiceBlock.X_U1.XAMP.XFilter.XOutputn.VGN_85)     .9367                     

(X_PSpiceBlock.X_U1.XAMP.XFilter.XOutputn.VGP_84)    2.3910                     

(X_PSpiceBlock.X_U1.XAMP.XFilter.XOutputp.VGN_85)     .9367                     

(X_PSpiceBlock.X_U1.XAMP.XFilter.XOutputp.VGP_84)    2.3910                     

(X_PSpiceBlock.X_U4.XAMP.XFilter.XOutputn.VGN_85)     .9383                     

(X_PSpiceBlock.X_U4.XAMP.XFilter.XOutputn.VGP_84)    2.3926                     

(X_PSpiceBlock.X_U4.XAMP.XFilter.XOutputp.VGN_85)     .9359                     

(X_PSpiceBlock.X_U4.XAMP.XFilter.XOutputp.VGP_84)    2.3903                     

(X_PSpiceBlock.X_U1.XDCDC.XDAB.Xf_caliber.XDEL1.3)    1.0000                    

(X_PSpiceBlock.X_U1.XDCDC.XDAB.Xf_caliber.XDEL1.4)    1.0000                    

(X_PSpiceBlock.X_U1.XDCDC.XDAB.Xf_caliber.XDEL1.5)    1.0000                    

(X_PSpiceBlock.X_U4.XDCDC.XDAB.Xf_caliber.XDEL1.3)    1.0000                    

(X_PSpiceBlock.X_U4.XDCDC.XDAB.Xf_caliber.XDEL1.4)    1.0000                    

(X_PSpiceBlock.X_U4.XDCDC.XDAB.Xf_caliber.XDEL1.5)    1.0000                


**** Interrupt ****

The following unused Convergence options can be added to simulation:
CSHUNT=1e-12
DIODERS=1e-4
DIODECJO=2e-12
BJTCJ=1e-11
JFETCJ=1e-12
MOSCJ=1e-12


          JOB CONCLUDED
 AutoConverge Simulator Options
 ITL1 = 150
 ITL2 = 20
 ITL4 = 1000
 RELTOL = 0.05
 ABSTOL = 1e-06
 VNTOL = 1e-06
 PIVTOL = 1e-13

**** 09/30/25 23:44:17 ******* PSpice 17.4.0 (Nov 2018) ******* ID# 0 ********

 ** Profile: "SCHEMATIC1-trans"  [ C:\Cadence\SPB_17.4\tools\pspice\capture_samples\CoSimulationDemos\PSpiceCoSim\INSULATION\project-


 ****     JOB STATISTICS SUMMARY


******************************************************************************



  Total job time (using Solver 1)   =       28.97
